@<TRIPOS>MOLECULE
CHEMBL386661
   71    75     0     0     0
SMALL
USER_CHARGES

@<TRIPOS>ATOM
      1 C1         -0.0578    1.4882    0.0752 C.3       1 <0>        -0.1289
      2 C2         -0.0328   -0.0185    0.0544 C.ar      1 <0>        -0.0348
      3 C3         -0.0263   -0.6909   -1.1524 C.ar      1 <0>        -0.1241
      4 C4         -0.0035   -2.0706   -1.1803 C.ar      1 <0>        -0.0803
      5 C5          0.0127   -2.7952    0.0137 C.ar      1 <0>        -0.1467
      6 C6          0.0062   -2.1213    1.2337 C.ar      1 <0>        -0.0369
      7 C7         -0.0106   -0.7302    1.2533 C.ar      1 <0>        -0.0458
      8 C8         -0.0111   -0.0054    2.5478 C.ar      1 <0>        -0.0835
      9 C9          0.9039    1.0375    2.7621 C.ar      1 <0>        -0.0523
     10 C10         0.9250    1.7186    3.9385 C.ar      1 <0>        -0.1185
     11 C11         0.0223    1.3809    4.9591 C.ar      1 <0>         0.2202
     12 C12        -0.9069    0.3280    4.7524 C.ar      1 <0>        -0.2173
     13 C13        -0.9172   -0.3589    3.5318 C.ar      1 <0>        -0.0330
     14 C14        -1.8011    0.0106    5.7926 C.ar      1 <0>         0.2448
     15 N1         -1.7360    0.7037    6.9100 N.ar      1 <0>        -0.5570
     16 C15        -0.8510    1.6857    7.0699 C.ar      1 <0>         0.5716
     17 N2          0.0105    2.0272    6.1313 N.ar      1 <0>        -0.5743
     18 N3         -0.8345    2.3755    8.2686 N.pl3     1 <0>        -0.6981
     19 C16        -1.7785    2.0204    9.3311 C.3       1 <0>         0.1024
     20 C17         0.0362   -4.2730   -0.0164 C.2       1 <0>         0.5637
     21 O1          0.0502   -4.9021    1.0237 O.2       1 <0>        -0.5070
     22 N4          0.0420   -4.9229   -1.1972 N.am      1 <0>        -0.6617
     23 C18         0.1862   -6.3156   -1.2292 C.ar      1 <0>         0.1373
     24 C19         0.8161   -6.9739   -0.1829 C.ar      1 <0>        -0.0472
     25 C20         0.9573   -8.3482   -0.2169 C.ar      1 <0>        -0.1832
     26 C21         0.4721   -9.0702   -1.2918 C.ar      1 <0>        -0.0471
     27 C22        -0.1567   -8.4212   -2.3380 C.ar      1 <0>        -0.1902
     28 C23        -0.3075   -7.0443   -2.3091 C.ar      1 <0>         0.1166
     29 O2         -0.9311   -6.4052   -3.3345 O.3       1 <0>        -0.2970
     30 C24        -1.5144   -7.2238   -4.3502 C.3       1 <0>         0.0717
     31 C25        -0.5240   -7.3888   -5.5065 C.3       1 <0>        -0.1734
     32 C26        -1.1837   -8.1993   -6.6243 C.3       1 <0>        -0.0032
     33 N5         -2.3818   -7.4979   -7.1006 N.4       1 <0>        -0.3877
     34 C27        -3.3657   -7.3995   -6.0158 C.3       1 <0>        -0.0020
     35 C28        -2.7900   -6.5581   -4.8747 C.3       1 <0>        -0.1479
     36 C29        -2.9674   -8.2401   -8.2250 C.3       1 <0>        -0.0479
     37 C30         1.6422   -9.0617    0.9201 C.3       1 <0>         0.5111
     38 F1          0.6947   -9.4168    1.8862 F         1 <0>        -0.1715
     39 F2          2.2698  -10.2147    0.4366 F         1 <0>        -0.1752
     40 F3          2.5980   -8.2160    1.4932 F         1 <0>        -0.1719
     41 H1          0.9637    1.8685    0.0714 H         1 <0>         0.0813
     42 H2         -0.5854    1.8550   -0.8052 H         1 <0>         0.0728
     43 H3         -0.5697    1.8307    0.9745 H         1 <0>         0.0777
     44 H4         -0.0394   -0.1345   -2.0780 H         1 <0>         0.1340
     45 H5          0.0015   -2.5908   -2.1267 H         1 <0>         0.1231
     46 H6          0.0186   -2.6766    2.1599 H         1 <0>         0.1418
     47 H7          1.6014    1.3023    1.9813 H         1 <0>         0.1337
     48 H8          1.6355    2.5181    4.0877 H         1 <0>         0.1407
     49 H9         -1.6225   -1.1590    3.3620 H         1 <0>         0.1354
     50 H10        -2.5242   -0.7831    5.6763 H         1 <0>         0.1785
     51 H11        -0.1978    3.0944    8.4058 H         1 <0>         0.4177
     52 H12        -1.6161    2.6679   10.1927 H         1 <0>         0.0790
     53 H13        -2.7985    2.1473    8.9683 H         1 <0>         0.0612
     54 H14        -1.6233    0.9817    9.6228 H         1 <0>         0.0613
     55 H15        -0.0538   -4.4260   -2.0247 H         1 <0>         0.4164
     56 H16         1.1964   -6.4125    0.6577 H         1 <0>         0.1708
     57 H17         0.5850  -10.1440   -1.3142 H         1 <0>         0.1453
     58 H18        -0.5345   -8.9882   -3.1760 H         1 <0>         0.1421
     59 H19        -1.7579   -8.2018   -3.9350 H         1 <0>         0.0981
     60 H20        -0.2417   -6.4070   -5.8868 H         1 <0>         0.1028
     61 H21         0.3644   -7.9121   -5.1530 H         1 <0>         0.1197
     62 H22        -0.4812   -8.3188   -7.4490 H         1 <0>         0.1392
     63 H23        -1.4654   -9.1809   -6.2430 H         1 <0>         0.1320
     64 H24        -4.2741   -6.9285   -6.3914 H         1 <0>         0.1412
     65 H25        -3.6009   -8.3981   -5.6475 H         1 <0>         0.1328
     66 H26        -3.5213   -6.4878   -4.0695 H         1 <0>         0.1228
     67 H27        -2.5547   -5.5592   -5.2418 H         1 <0>         0.1021
     68 H28        -3.2396   -9.2429   -7.8959 H         1 <0>         0.1232
     69 H29        -3.8573   -7.7200   -8.5795 H         1 <0>         0.1263
     70 H30        -2.2398   -8.3080   -9.0338 H         1 <0>         0.1261
     71 H31        -2.1278   -6.5710   -7.4080 H         1 <0>         0.4271
@<TRIPOS>BOND
     1    1    2 1
     2    1   41 1
     3    1   42 1
     4    1   43 1
     5    2    7 ar
     6    2    3 ar
     7    3    4 ar
     8    3   44 1
     9    4    5 ar
    10    4   45 1
    11    5    6 ar
    12    5   20 1
    13    6    7 ar
    14    6   46 1
    15    7    8 1
    16    8   13 ar
    17    8    9 ar
    18    9   10 ar
    19    9   47 1
    20   10   11 ar
    21   10   48 1
    22   11   17 ar
    23   11   12 ar
    24   12   13 ar
    25   12   14 ar
    26   13   49 1
    27   14   15 ar
    28   14   50 1
    29   15   16 ar
    30   16   17 ar
    31   16   18 1
    32   18   19 1
    33   18   51 1
    34   19   52 1
    35   19   53 1
    36   19   54 1
    37   20   21 2
    38   20   22 am
    39   22   23 1
    40   22   55 1
    41   23   28 ar
    42   23   24 ar
    43   24   25 ar
    44   24   56 1
    45   25   26 ar
    46   25   37 1
    47   26   27 ar
    48   26   57 1
    49   27   28 ar
    50   27   58 1
    51   28   29 1
    52   29   30 1
    53   30   35 1
    54   30   31 1
    55   30   59 1
    56   31   32 1
    57   31   60 1
    58   31   61 1
    59   32   33 1
    60   32   62 1
    61   32   63 1
    62   33   34 1
    63   33   36 1
    64   33   71 1
    65   34   35 1
    66   34   64 1
    67   34   65 1
    68   35   66 1
    69   35   67 1
    70   36   68 1
    71   36   69 1
    72   36   70 1
    73   37   38 1
    74   37   39 1
    75   37   40 1
@<TRIPOS>MOLECULE
CHEMBL218557
   69    75     0     0     0
SMALL
USER_CHARGES

@<TRIPOS>ATOM
      1 C1          1.6627    1.5256    2.2458 C.3       1 <0>        -0.1518
      2 C2          1.6846   -0.0042    2.2518 C.3       1 <0>        -0.1493
      3 C3          0.7311   -0.5321    1.1781 C.3       1 <0>         0.1004
      4 N1          0.7521   -1.9970    1.1838 N.pl3     1 <0>        -0.4945
      5 C4         -0.1548   -2.7935    1.8390 C.ar      1 <0>         0.1356
      6 C5         -1.2601   -2.4637    2.6222 C.ar      1 <0>        -0.1169
      7 C6         -1.9924   -3.5106    3.1552 C.ar      1 <0>        -0.1017
      8 C7         -1.6549   -4.8389    2.9306 C.ar      1 <0>         0.1229
      9 C8         -0.5558   -5.1900    2.1533 C.ar      1 <0>        -0.0534
     10 C9          0.1890   -4.1441    1.6104 C.ar      1 <0>        -0.0806
     11 C10         1.3821   -4.1359    0.7596 C.ar      1 <0>        -0.0986
     12 C11         1.6851   -2.7783    0.5248 C.ar      1 <0>         0.1899
     13 C12         2.7714   -2.4372   -0.2779 C.ar      1 <0>        -0.1209
     14 C13         3.5704   -3.4452   -0.8077 C.ar      1 <0>         0.1295
     15 C14         3.2633   -4.8004   -0.5952 C.ar      1 <0>        -0.1977
     16 C15         2.1674   -5.1324    0.2014 C.ar      1 <0>        -0.0110
     17 C16         2.1093   -6.6392    0.2432 C.3       1 <0>         0.1376
     18 N2          3.2407   -7.1131   -0.5629 N.am      1 <0>        -0.7202
     19 C17         3.8959   -6.0469   -1.0524 C.2       1 <0>         0.5769
     20 O1          4.8809   -6.1045   -1.7636 O.2       1 <0>        -0.5347
     21 C18         4.7769   -3.0339   -1.5590 C.2       1 <0>        -0.2417
     22 C19         5.6141   -3.7206   -2.3646 C.2       1 <0>         0.1046
     23 N3          6.5476   -2.8497   -2.8112 N.pl3     1 <0>        -0.3869
     24 N4          6.2775   -1.5883   -2.2565 N.2       1 <0>        -0.2898
     25 C20         5.2322   -1.6867   -1.5024 C.2       1 <0>         0.0929
     26 C21         4.5295   -0.6595   -0.6523 C.3       1 <0>        -0.0322
     27 C22         3.0406   -0.9893   -0.5817 C.3       1 <0>        -0.0854
     28 C23         7.6526   -3.1684   -3.7187 C.3       1 <0>         0.1032
     29 N5         -2.4402   -5.8501    3.5011 N.am      1 <0>        -0.6460
     30 C24        -1.8655   -6.9961    3.9166 C.2       1 <0>         0.6426
     31 O2         -0.6565   -7.1154    3.8861 O.2       1 <0>        -0.5368
     32 O3         -2.6310   -8.0091    4.3657 O.3       1 <0>        -0.2991
     33 C25        -2.0185   -9.1827    4.6772 C.ar      1 <0>         0.0604
     34 C26        -1.2895   -9.2941    5.8519 C.ar      1 <0>        -0.0713
     35 C27        -0.6674  -10.4860    6.1683 C.ar      1 <0>        -0.1374
     36 C28        -0.7721  -11.5718    5.3115 C.ar      1 <0>         0.1369
     37 C29        -1.5015  -11.4605    4.1369 C.ar      1 <0>        -0.1961
     38 C30        -2.1276  -10.2700    3.8229 C.ar      1 <0>        -0.0724
     39 O4         -0.1594  -12.7450    5.6227 O.3       1 <0>        -0.3133
     40 C31        -0.3093  -13.8213    4.6947 C.3       1 <0>         0.0244
     41 H1          0.6515    1.8753    2.4541 H         1 <0>         0.0587
     42 H2          2.3420    1.9017    3.0108 H         1 <0>         0.0637
     43 H3          1.9789    1.8897    1.2683 H         1 <0>         0.0598
     44 H4          2.6958   -0.3539    2.0435 H         1 <0>         0.0749
     45 H5          1.3685   -0.3683    3.2293 H         1 <0>         0.0725
     46 H6         -0.2801   -0.1825    1.3864 H         1 <0>         0.0934
     47 H7          1.0473   -0.1680    0.2005 H         1 <0>         0.0993
     48 H8         -1.5333   -1.4350    2.8055 H         1 <0>         0.1391
     49 H9         -2.8545   -3.2870    3.7662 H         1 <0>         0.1325
     50 H10        -0.2921   -6.2228    1.9792 H         1 <0>         0.1445
     51 H11         2.2079   -6.9899    1.2705 H         1 <0>         0.1041
     52 H12         1.1705   -6.9903   -0.1851 H         1 <0>         0.0999
     53 H13         3.4700   -8.0416   -0.7253 H         1 <0>         0.4266
     54 H14         5.5506   -4.7710   -2.6073 H         1 <0>         0.2199
     55 H15         4.9516   -0.6692    0.3526 H         1 <0>         0.0876
     56 H16         4.6623    0.3288   -1.0925 H         1 <0>         0.0898
     57 H17         2.5807   -0.7404   -1.5381 H         1 <0>         0.0789
     58 H18         2.5823   -0.3770    0.1949 H         1 <0>         0.0943
     59 H19         7.3302   -3.0212   -4.7495 H         1 <0>         0.0745
     60 H20         8.4980   -2.5142   -3.5055 H         1 <0>         0.0886
     61 H21         7.9518   -4.2068   -3.5763 H         1 <0>         0.0899
     62 H22        -3.3974   -5.7250    3.5968 H         1 <0>         0.4184
     63 H23        -1.2080   -8.4487    6.5191 H         1 <0>         0.1366
     64 H24        -0.0992  -10.5725    7.0827 H         1 <0>         0.1407
     65 H25        -1.5828  -12.3058    3.4696 H         1 <0>         0.1385
     66 H26        -2.6986  -10.1845    2.9103 H         1 <0>         0.1354
     67 H27        -1.3666  -14.0628    4.5862 H         1 <0>         0.0583
     68 H28         0.0971  -13.5262    3.7273 H         1 <0>         0.0580
     69 H29         0.2273  -14.6957    5.0628 H         1 <0>         0.1035
@<TRIPOS>BOND
     1    1    2 1
     2    1   41 1
     3    1   42 1
     4    1   43 1
     5    2    3 1
     6    2   44 1
     7    2   45 1
     8    3    4 1
     9    3   46 1
    10    3   47 1
    11    4   12 1
    12    4    5 1
    13    5   10 ar
    14    5    6 ar
    15    6    7 ar
    16    6   48 1
    17    7    8 ar
    18    7   49 1
    19    8    9 ar
    20    8   29 1
    21    9   10 ar
    22    9   50 1
    23   10   11 1
    24   11   16 ar
    25   11   12 ar
    26   12   13 ar
    27   13   27 1
    28   13   14 ar
    29   14   15 ar
    30   14   21 1
    31   15   19 1
    32   15   16 ar
    33   16   17 1
    34   17   18 1
    35   17   51 1
    36   17   52 1
    37   18   19 am
    38   18   53 1
    39   19   20 2
    40   21   25 1
    41   21   22 2
    42   22   23 1
    43   22   54 1
    44   23   24 1
    45   23   28 1
    46   24   25 2
    47   25   26 1
    48   26   27 1
    49   26   55 1
    50   26   56 1
    51   27   57 1
    52   27   58 1
    53   28   59 1
    54   28   60 1
    55   28   61 1
    56   29   30 am
    57   29   62 1
    58   30   31 2
    59   30   32 1
    60   32   33 1
    61   33   38 ar
    62   33   34 ar
    63   34   35 ar
    64   34   63 1
    65   35   36 ar
    66   35   64 1
    67   36   37 ar
    68   36   39 1
    69   37   38 ar
    70   37   65 1
    71   38   66 1
    72   39   40 1
    73   40   67 1
    74   40   68 1
    75   40   69 1
@<TRIPOS>MOLECULE
CHEMBL420528
   50    54     0     0     0
SMALL
USER_CHARGES

@<TRIPOS>ATOM
      1 C1         -0.0164    1.3606    0.0095 C.ar      1 <0>        -0.1489
      2 C2          1.1695    2.0826    0.0021 C.ar      1 <0>        -0.0485
      3 C3          2.3855    1.4349   -0.0130 C.ar      1 <0>        -0.1667
      4 C4          2.4309    0.0432   -0.0210 C.ar      1 <0>         0.1977
      5 C5          1.2276   -0.6864   -0.0134 C.ar      1 <0>        -0.1417
      6 C6          0.0021   -0.0041    0.0020 C.ar      1 <0>        -0.0497
      7 C7          1.2573   -2.1036   -0.0208 C.2       1 <0>         0.0182
      8 C8          2.4756   -2.7493   -0.0355 C.2       1 <0>        -0.1527
      9 C9          3.7089   -1.9541   -0.0430 C.2       1 <0>         0.5458
     10 N1          3.6467   -0.6094   -0.0357 N.am      1 <0>        -0.6261
     11 O1          4.7915   -2.5121   -0.0560 O.2       1 <0>        -0.5149
     12 C10         2.5386   -4.2239   -0.0430 C.2       1 <0>         0.1406
     13 C11         3.0450   -4.9916    0.9562 C.2       1 <0>        -0.1475
     14 C12         2.9085   -6.3842    0.5342 C.ar      1 <0>        -0.1269
     15 C13         3.2403   -7.6099    1.1196 C.ar      1 <0>         0.0523
     16 C14         2.9779   -8.7729    0.4530 C.ar      1 <0>        -0.7073
     17 C15         2.3846   -8.7481   -0.8020 C.ar      1 <0>        -0.0261
     18 C16         2.0493   -7.5516   -1.3979 C.ar      1 <0>        -0.1363
     19 C17         2.3063   -6.3544   -0.7383 C.ar      1 <0>         0.1518
     20 N2          2.0877   -5.0327   -1.0611 N.pl3     1 <0>        -0.5804
     21 H1          1.6797   -4.7193   -1.8835 H         1 <0>         0.4210
     22 S1          3.3963  -10.3170    1.1915 S.o2      1 <0>         2.6931
     23 O2          3.5460  -11.2482    0.1286 O.2       1 <0>        -0.9463
     24 O3          4.4347  -10.0527    2.1247 O.2       1 <0>        -0.9410
     25 N3          2.0832  -10.8105    2.0716 N.pl3     1 <0>        -1.1166
     26 C18         0.8273  -11.1383    1.3924 C.3       1 <0>         0.1330
     27 C19        -0.1559   -9.9484    1.4788 C.3       1 <0>        -0.1731
     28 C20        -1.5213  -10.6433    1.7098 C.3       1 <0>        -0.0025
     29 N4         -1.1776  -11.7797    2.6024 N.4       1 <0>        -0.5169
     30 C21         0.1174  -12.2997    2.1126 C.3       1 <0>        -0.0146
     31 H2         -0.9614    1.8832    0.0259 H         1 <0>         0.1351
     32 H3          1.1386    3.1621    0.0078 H         1 <0>         0.1382
     33 H4          3.3022    2.0058   -0.0191 H         1 <0>         0.1390
     34 H5         -0.9252   -0.5577    0.0083 H         1 <0>         0.1370
     35 H6          0.3378   -2.6701   -0.0147 H         1 <0>         0.1447
     36 H7          3.4681   -4.6401    1.8857 H         1 <0>         0.1558
     37 H8          3.7026   -7.6369    2.0953 H         1 <0>         0.1428
     38 H9          2.1842   -9.6761   -1.3168 H         1 <0>         0.1411
     39 H10         1.5885   -7.5436   -2.3747 H         1 <0>         0.1330
     40 H11         2.1457  -10.8826    3.0369 H         1 <0>         0.4234
     41 H12         1.0178  -11.3988    0.3513 H         1 <0>         0.1373
     42 H13         0.0947   -9.3013    2.3193 H         1 <0>         0.1105
     43 H14        -0.1627   -9.3852    0.5456 H         1 <0>         0.1256
     44 H15        -2.2195   -9.9656    2.2012 H         1 <0>         0.1414
     45 H16        -1.9332  -11.0050    0.7677 H         1 <0>         0.1409
     46 H17        -1.0860  -11.4588    3.5546 H         1 <0>         0.4331
     47 H18        -0.0517  -13.1208    1.4159 H         1 <0>         0.1493
     48 H19         0.7223  -12.6407    2.9528 H         1 <0>         0.1438
     49 H20         4.4674   -0.0923   -0.0405 H         1 <0>         0.4222
     50 H21        -1.8856  -12.4961    2.5418 H         1 <0>         0.4372
@<TRIPOS>BOND
     1    1    6 ar
     2    1    2 ar
     3    1   31 1
     4    2    3 ar
     5    2   32 1
     6    3    4 ar
     7    3   33 1
     8    4   10 1
     9    4    5 ar
    10    5    6 ar
    11    5    7 1
    12    6   34 1
    13    7    8 2
    14    7   35 1
    15    8    9 1
    16    8   12 1
    17    9   10 am
    18    9   11 2
    19   10   49 1
    20   12   20 1
    21   12   13 2
    22   13   14 1
    23   13   36 1
    24   14   19 ar
    25   14   15 ar
    26   15   16 ar
    27   15   37 1
    28   16   17 ar
    29   16   22 1
    30   17   18 ar
    31   17   38 1
    32   18   19 ar
    33   18   39 1
    34   19   20 1
    35   20   21 1
    36   22   23 2
    37   22   24 2
    38   22   25 1
    39   25   26 1
    40   25   40 1
    41   26   30 1
    42   26   27 1
    43   26   41 1
    44   27   28 1
    45   27   42 1
    46   27   43 1
    47   28   29 1
    48   28   44 1
    49   28   45 1
    50   29   30 1
    51   29   46 1
    52   29   50 1
    53   30   47 1
    54   30   48 1
@<TRIPOS>MOLECULE
CHEMBL420528__1
   50    54     0     0     0
SMALL
USER_CHARGES

@<TRIPOS>ATOM
      1 C1         -0.0164    1.3606    0.0095 C.ar      1 <0>        -0.1490
      2 C2          1.1695    2.0826    0.0021 C.ar      1 <0>        -0.0486
      3 C3          2.3855    1.4349   -0.0130 C.ar      1 <0>        -0.1667
      4 C4          2.4309    0.0432   -0.0210 C.ar      1 <0>         0.1977
      5 C5          1.2276   -0.6864   -0.0134 C.ar      1 <0>        -0.1416
      6 C6          0.0021   -0.0041    0.0020 C.ar      1 <0>        -0.0496
      7 C7          1.2573   -2.1036   -0.0208 C.2       1 <0>         0.0183
      8 C8          2.4756   -2.7493   -0.0355 C.2       1 <0>        -0.1528
      9 C9          3.7089   -1.9541   -0.0430 C.2       1 <0>         0.5459
     10 N1          3.6467   -0.6094   -0.0357 N.am      1 <0>        -0.6261
     11 O1          4.7915   -2.5121   -0.0560 O.2       1 <0>        -0.5149
     12 C10         2.5386   -4.2239   -0.0430 C.2       1 <0>         0.1406
     13 C11         3.0450   -4.9916    0.9562 C.2       1 <0>        -0.1473
     14 C12         2.9085   -6.3842    0.5342 C.ar      1 <0>        -0.1272
     15 C13         3.2403   -7.6099    1.1196 C.ar      1 <0>         0.0519
     16 C14         2.9779   -8.7729    0.4530 C.ar      1 <0>        -0.7093
     17 C15         2.3846   -8.7481   -0.8020 C.ar      1 <0>        -0.0282
     18 C16         2.0493   -7.5516   -1.3979 C.ar      1 <0>        -0.1354
     19 C17         2.3063   -6.3544   -0.7383 C.ar      1 <0>         0.1516
     20 N2          2.0877   -5.0327   -1.0611 N.pl3     1 <0>        -0.5803
     21 H1          1.6797   -4.7193   -1.8835 H         1 <0>         0.4212
     22 S1          3.3963  -10.3170    1.1915 S.o2      1 <0>         2.6930
     23 O2          3.5460  -11.2482    0.1286 O.2       1 <0>        -0.9447
     24 O3          4.4347  -10.0527    2.1247 O.2       1 <0>        -0.9413
     25 N3          2.0832  -10.8105    2.0716 N.pl3     1 <0>        -1.1167
     26 C18         0.8273  -11.1383    1.3924 C.3       1 <0>         0.1364
     27 C19         0.6937  -12.6689    1.2208 C.3       1 <0>        -0.1666
     28 C20        -0.1916  -13.0766    2.4251 C.3       1 <0>        -0.0062
     29 N4         -1.1546  -11.9511    2.5355 N.4       1 <0>        -0.5163
     30 C21        -0.3744  -10.7247    2.2620 C.3       1 <0>        -0.0170
     31 H2         -0.9614    1.8832    0.0259 H         1 <0>         0.1351
     32 H3          1.1386    3.1621    0.0078 H         1 <0>         0.1382
     33 H4          3.3022    2.0058   -0.0191 H         1 <0>         0.1390
     34 H5         -0.9252   -0.5577    0.0083 H         1 <0>         0.1371
     35 H6          0.3378   -2.6701   -0.0147 H         1 <0>         0.1448
     36 H7          3.4681   -4.6401    1.8857 H         1 <0>         0.1562
     37 H8          3.7026   -7.6369    2.0953 H         1 <0>         0.1433
     38 H9          2.1842   -9.6761   -1.3168 H         1 <0>         0.1417
     39 H10         1.5885   -7.5436   -2.3747 H         1 <0>         0.1335
     40 H11         2.1457  -10.8826    3.0369 H         1 <0>         0.4230
     41 H12         0.7815  -10.6420    0.4230 H         1 <0>         0.1303
     42 H13         0.1994  -12.9098    0.2796 H         1 <0>         0.1140
     43 H14         1.6699  -13.1503    1.2792 H         1 <0>         0.1299
     44 H15        -0.7140  -14.0110    2.2197 H         1 <0>         0.1430
     45 H16         0.4073  -13.1608    3.3319 H         1 <0>         0.1373
     46 H17        -1.8906  -12.0547    1.8531 H         1 <0>         0.4343
     47 H18        -0.0234  -10.2914    3.1985 H         1 <0>         0.1431
     48 H19        -0.9912  -10.0044    1.7246 H         1 <0>         0.1472
     49 H20         4.4674   -0.0923   -0.0405 H         1 <0>         0.4222
     50 H21        -1.5434  -11.9159    3.4659 H         1 <0>         0.4362
@<TRIPOS>BOND
     1    1    6 ar
     2    1    2 ar
     3    1   31 1
     4    2    3 ar
     5    2   32 1
     6    3    4 ar
     7    3   33 1
     8    4   10 1
     9    4    5 ar
    10    5    6 ar
    11    5    7 1
    12    6   34 1
    13    7    8 2
    14    7   35 1
    15    8    9 1
    16    8   12 1
    17    9   10 am
    18    9   11 2
    19   10   49 1
    20   12   20 1
    21   12   13 2
    22   13   14 1
    23   13   36 1
    24   14   19 ar
    25   14   15 ar
    26   15   16 ar
    27   15   37 1
    28   16   17 ar
    29   16   22 1
    30   17   18 ar
    31   17   38 1
    32   18   19 ar
    33   18   39 1
    34   19   20 1
    35   20   21 1
    36   22   23 2
    37   22   24 2
    38   22   25 1
    39   25   26 1
    40   25   40 1
    41   26   30 1
    42   26   27 1
    43   26   41 1
    44   27   28 1
    45   27   42 1
    46   27   43 1
    47   28   29 1
    48   28   44 1
    49   28   45 1
    50   29   30 1
    51   29   46 1
    52   29   50 1
    53   30   47 1
    54   30   48 1
@<TRIPOS>MOLECULE
CHEMBL272170
   49    53     0     0     0
SMALL
USER_CHARGES

@<TRIPOS>ATOM
      1 C1         -1.0304    1.4663    2.2573 C.3       1 <0>        -0.1144
      2 C2         -0.8176   -0.0256    2.2661 C.ar      1 <0>        -0.1033
      3 C3         -1.1788   -0.7675    3.3757 C.ar      1 <0>        -0.0992
      4 C4         -0.9855   -2.1350    3.3867 C.ar      1 <0>        -0.1462
      5 C5         -0.4279   -2.7648    2.2818 C.ar      1 <0>         0.1505
      6 C6         -0.0662   -2.0169    1.1690 C.ar      1 <0>        -0.1329
      7 C7         -0.2670   -0.6504    1.1622 C.ar      1 <0>        -0.0993
      8 N1         -0.2303   -4.1501    2.2899 N.am      1 <0>        -0.6750
      9 C8         -0.1683   -4.8288    1.1272 C.2       1 <0>         0.7143
     10 O1         -0.1494   -4.2257    0.0715 O.2       1 <0>        -0.5441
     11 N2         -0.1273   -6.1759    1.1346 N.am      1 <0>        -0.5655
     12 C9         -0.0927   -6.9307    2.3991 C.3       1 <0>         0.0620
     13 C10         0.9191   -8.0730    2.2294 C.3       1 <0>         0.0500
     14 O2          0.5144   -8.8872    1.1263 O.3       1 <0>        -0.3048
     15 C11         0.2103   -8.2647   -0.0429 C.ar      1 <0>         0.1087
     16 C12        -0.1219   -6.9113   -0.0659 C.ar      1 <0>         0.1017
     17 C13        -0.4402   -6.2890   -1.2617 C.ar      1 <0>        -0.1000
     18 C14        -0.4314   -7.0122   -2.4401 C.ar      1 <0>        -0.1151
     19 C15        -0.1039   -8.3599   -2.4241 C.ar      1 <0>         0.1033
     20 C16         0.2246   -8.9857   -1.2268 C.ar      1 <0>        -0.1197
     21 O3         -0.0949   -9.0693   -3.5840 O.3       1 <0>        -0.2316
     22 C17        -1.0780   -9.9800   -3.7799 C.ar      1 <0>         0.4131
     23 C18        -1.0690  -10.8154   -4.9050 C.ar      1 <0>        -0.2224
     24 C19        -0.1866  -10.9925   -6.0570 C.2       1 <0>        -0.1567
     25 C20        -0.7198  -11.9699   -6.8080 C.2       1 <0>         0.0478
     26 N3         -1.8722  -12.4287   -6.2243 N.pl3     1 <0>        -0.5676
     27 H1         -2.4342  -13.1338   -6.5820 H         1 <0>         0.4263
     28 C21        -2.1132  -11.7464   -5.0636 C.ar      1 <0>         0.3404
     29 N4         -3.0684  -11.7949   -4.1371 N.ar      1 <0>        -0.5477
     30 C22        -3.0358  -10.9903   -3.0971 C.ar      1 <0>         0.3556
     31 N5         -2.0715  -10.1072   -2.9078 N.ar      1 <0>        -0.5798
     32 H2         -2.0219    1.6896    1.8634 H         1 <0>         0.0699
     33 H3         -0.9482    1.8510    3.2739 H         1 <0>         0.0657
     34 H4         -0.2750    1.9374    1.6284 H         1 <0>         0.0663
     35 H5         -1.6121   -0.2770    4.2348 H         1 <0>         0.1265
     36 H6         -1.2674   -2.7138    4.2538 H         1 <0>         0.1242
     37 H7          0.3680   -2.5038    0.3083 H         1 <0>         0.1606
     38 H8          0.0100   -0.0688    0.2954 H         1 <0>         0.1259
     39 H9         -0.1380   -4.6219    3.1324 H         1 <0>         0.4069
     40 H10         0.2212   -6.2761    3.2121 H         1 <0>         0.1006
     41 H11        -1.0802   -7.3399    2.6128 H         1 <0>         0.0971
     42 H12         1.9082   -7.6588    2.0341 H         1 <0>         0.0743
     43 H13         0.9458   -8.6752    3.1375 H         1 <0>         0.1285
     44 H14        -0.6953   -5.2396   -1.2736 H         1 <0>         0.1781
     45 H15        -0.6799   -6.5279   -3.3728 H         1 <0>         0.1381
     46 H16         0.4790  -10.0352   -1.2167 H         1 <0>         0.1385
     47 H17         0.7197  -10.4430   -6.2643 H         1 <0>         0.1590
     48 H18        -0.3030  -12.3392   -7.7334 H         1 <0>         0.1863
     49 H19        -3.8273  -11.0576   -2.3654 H         1 <0>         0.2051
@<TRIPOS>BOND
     1    1    2 1
     2    1   32 1
     3    1   33 1
     4    1   34 1
     5    2    7 ar
     6    2    3 ar
     7    3    4 ar
     8    3   35 1
     9    4    5 ar
    10    4   36 1
    11    5    6 ar
    12    5    8 1
    13    6    7 ar
    14    6   37 1
    15    7   38 1
    16    8    9 am
    17    8   39 1
    18    9   10 2
    19    9   11 am
    20   11   16 1
    21   11   12 1
    22   12   13 1
    23   12   40 1
    24   12   41 1
    25   13   14 1
    26   13   42 1
    27   13   43 1
    28   14   15 1
    29   15   20 ar
    30   15   16 ar
    31   16   17 ar
    32   17   18 ar
    33   17   44 1
    34   18   19 ar
    35   18   45 1
    36   19   20 ar
    37   19   21 1
    38   20   46 1
    39   21   22 1
    40   22   31 ar
    41   22   23 ar
    42   23   28 ar
    43   23   24 1
    44   24   25 2
    45   24   47 1
    46   25   26 1
    47   25   48 1
    48   26   27 1
    49   26   28 1
    50   28   29 ar
    51   29   30 ar
    52   30   31 ar
    53   30   49 1
@<TRIPOS>MOLECULE
CHEMBL496575
   64    68     0     0     0
SMALL
USER_CHARGES

@<TRIPOS>ATOM
      1 C1          1.0676    2.9045   -3.9684 C.3       1 <0>        -0.1535
      2 C2          0.8790    1.8069   -2.9193 C.3       1 <0>        -0.1215
      3 C3          1.3488    0.4681   -3.4918 C.3       1 <0>        -0.1123
      4 C4          1.1601   -0.6295   -2.4428 C.3       1 <0>        -0.0441
      5 C5          1.6229   -1.9482   -3.0067 C.2       1 <0>         0.1354
      6 C6          0.8263   -2.8556   -3.7117 C.2       1 <0>        -0.1946
      7 C7          1.6447   -3.9434   -4.0537 C.2       1 <0>         0.0826
      8 C8          1.4179   -5.1379   -4.7491 C.2       1 <0>        -0.0447
      9 C9          2.4512   -6.0134   -4.9185 C.2       1 <0>        -0.1448
     10 C10         3.7145   -5.7124   -4.4011 C.2       1 <0>         0.1155
     11 N1          3.9286   -4.5976   -3.7514 N.2       1 <0>        -0.2048
     12 N2          2.8941   -3.6747   -3.5573 N.pl3     1 <0>        -0.1712
     13 N3          2.8411   -2.4299   -2.9210 N.2       1 <0>        -0.2467
     14 C11        -0.6067   -2.6991   -4.0352 C.ar      1 <0>         0.3164
     15 C12        -1.0693   -2.9137   -5.3401 C.ar      1 <0>        -0.2705
     16 C13        -2.4174   -2.7553   -5.5943 C.ar      1 <0>         0.1912
     17 N4         -3.2279   -2.4080   -4.6053 N.ar      1 <0>        -0.5648
     18 C14        -2.7645   -2.2110   -3.3794 C.ar      1 <0>         0.5629
     19 N5         -1.4811   -2.3568   -3.0890 N.ar      1 <0>        -0.5521
     20 N6         -3.6464   -1.8484   -2.3750 N.pl3     1 <0>        -0.6402
     21 C15        -5.0233   -1.8128   -2.6311 C.ar      1 <0>         0.1394
     22 C16        -5.5924   -2.7363   -3.4980 C.ar      1 <0>        -0.0658
     23 C17        -6.9494   -2.7013   -3.7504 C.ar      1 <0>        -0.1619
     24 C18        -7.7452   -1.7426   -3.1372 C.ar      1 <0>         0.1760
     25 C19        -7.1761   -0.8191   -2.2701 C.ar      1 <0>        -0.1621
     26 C20        -5.8199   -0.8577   -2.0134 C.ar      1 <0>        -0.1020
     27 N7         -9.1207   -1.7068   -3.3933 N.pl3     1 <0>        -0.6457
     28 C21       -10.0011   -0.7774   -2.6686 C.3       1 <0>         0.1001
     29 C22       -10.8528   -0.0180   -3.6912 C.3       1 <0>        -0.0235
     30 N8        -11.5594   -0.9786   -4.5479 N.4       1 <0>        -0.3837
     31 C23       -10.5916   -1.7519   -5.3363 C.3       1 <0>        -0.0229
     32 C24        -9.7261   -2.5932   -4.3992 C.3       1 <0>         0.1003
     33 C25       -12.4592   -0.2536   -5.4550 C.3       1 <0>        -0.0469
     34 H1          2.1220    2.9738   -4.2362 H         1 <0>         0.0562
     35 H2          0.4824    2.6634   -4.8558 H         1 <0>         0.0516
     36 H3          0.7329    3.8583   -3.5605 H         1 <0>         0.0558
     37 H4          1.4642    2.0480   -2.0319 H         1 <0>         0.0664
     38 H5         -0.1753    1.7376   -2.6515 H         1 <0>         0.0602
     39 H6          0.7636    0.2270   -4.3793 H         1 <0>         0.0605
     40 H7          2.4031    0.5374   -3.7596 H         1 <0>         0.0685
     41 H8          1.7453   -0.3884   -1.5554 H         1 <0>         0.0880
     42 H9          0.1058   -0.6988   -2.1750 H         1 <0>         0.0982
     43 H10         0.4389   -5.3631   -5.1454 H         1 <0>         0.1581
     44 H11         2.2927   -6.9390   -5.4521 H         1 <0>         0.1626
     45 H12         4.5261   -6.4113   -4.5396 H         1 <0>         0.2109
     46 H13        -0.3875   -3.1959   -6.1288 H         1 <0>         0.1451
     47 H14        -2.8070   -2.9127   -6.5892 H         1 <0>         0.1713
     48 H15        -3.3108   -1.6190   -1.4943 H         1 <0>         0.4246
     49 H16        -4.9734   -3.4817   -3.9752 H         1 <0>         0.1376
     50 H17        -7.3919   -3.4194   -4.4250 H         1 <0>         0.1244
     51 H18        -7.7949   -0.0732   -1.7934 H         1 <0>         0.1256
     52 H19        -5.3781   -0.1425   -1.3355 H         1 <0>         0.1304
     53 H20       -10.6499   -1.3374   -1.9952 H         1 <0>         0.0866
     54 H21        -9.3979   -0.0713   -2.0978 H         1 <0>         0.1262
     55 H22       -11.5784    0.6052   -3.1686 H         1 <0>         0.1400
     56 H23       -10.2084    0.6112   -4.3052 H         1 <0>         0.1322
     57 H24       -11.1247   -2.4063   -6.0259 H         1 <0>         0.1404
     58 H25        -9.9551   -1.0702   -5.9005 H         1 <0>         0.1321
     59 H26        -8.9412   -3.0871   -4.9720 H         1 <0>         0.1262
     60 H27       -10.3467   -3.3397   -3.9035 H         1 <0>         0.0857
     61 H28       -11.8775    0.4282   -6.0753 H         1 <0>         0.1214
     62 H29       -12.9844   -0.9656   -6.0916 H         1 <0>         0.1248
     63 H30       -13.1832    0.3146   -4.8710 H         1 <0>         0.1247
     64 H31       -12.1004   -1.6063   -3.9723 H         1 <0>         0.4245
@<TRIPOS>BOND
     1    1    2 1
     2    1   34 1
     3    1   35 1
     4    1   36 1
     5    2    3 1
     6    2   37 1
     7    2   38 1
     8    3    4 1
     9    3   39 1
    10    3   40 1
    11    4    5 1
    12    4   41 1
    13    4   42 1
    14    5   13 2
    15    5    6 1
    16    6    7 2
    17    6   14 1
    18    7   12 1
    19    7    8 1
    20    8    9 2
    21    8   43 1
    22    9   10 1
    23    9   44 1
    24   10   11 2
    25   10   45 1
    26   11   12 1
    27   12   13 1
    28   14   19 ar
    29   14   15 ar
    30   15   16 ar
    31   15   46 1
    32   16   17 ar
    33   16   47 1
    34   17   18 ar
    35   18   19 ar
    36   18   20 1
    37   20   21 1
    38   20   48 1
    39   21   26 ar
    40   21   22 ar
    41   22   23 ar
    42   22   49 1
    43   23   24 ar
    44   23   50 1
    45   24   25 ar
    46   24   27 1
    47   25   26 ar
    48   25   51 1
    49   26   52 1
    50   27   32 1
    51   27   28 1
    52   28   29 1
    53   28   53 1
    54   28   54 1
    55   29   30 1
    56   29   55 1
    57   29   56 1
    58   30   31 1
    59   30   33 1
    60   30   64 1
    61   31   32 1
    62   31   57 1
    63   31   58 1
    64   32   59 1
    65   32   60 1
    66   33   61 1
    67   33   62 1
    68   33   63 1
@<TRIPOS>MOLECULE
CHEMBL496575__1
   63    67     0     0     0
SMALL
USER_CHARGES

@<TRIPOS>ATOM
      1 C1          2.8655    2.8893    2.9698 C.3       1 <0>        -0.1530
      2 C2          2.0677    1.7938    2.2596 C.3       1 <0>        -0.1221
      3 C3          2.3489    0.4452    2.9252 C.3       1 <0>        -0.1118
      4 C4          1.5512   -0.6503    2.2150 C.3       1 <0>        -0.0442
      5 C5          1.8282   -1.9787    2.8707 C.2       1 <0>         0.1339
      6 C6          2.8505   -2.8636    2.5149 C.2       1 <0>        -0.1843
      7 C7          2.7541   -3.9707    3.3723 C.2       1 <0>         0.0785
      8 C8          3.4876   -5.1571    3.4992 C.2       1 <0>        -0.0392
      9 C9          3.1313   -6.0580    4.4606 C.2       1 <0>        -0.1511
     10 C10         2.0473   -5.7904    5.3019 C.2       1 <0>         0.1147
     11 N1          1.3608   -4.6831    5.1853 N.2       1 <0>        -0.2083
     12 N2          1.6958   -3.7351    4.2114 N.pl3     1 <0>        -0.1732
     13 N3          1.1524   -2.4911    3.8728 N.2       1 <0>        -0.2489
     14 C11         3.8443   -2.6702    1.4391 C.ar      1 <0>         0.3095
     15 C12         5.2089   -2.8693    1.6866 C.ar      1 <0>        -0.2788
     16 C13         6.1003   -2.6763    0.6497 C.ar      1 <0>         0.1930
     17 N4          5.6435   -2.3115   -0.5395 N.ar      1 <0>        -0.5591
     18 C14         4.3473   -2.1297   -0.7471 C.ar      1 <0>         0.5669
     19 N5          3.4567   -2.3087    0.2159 N.ar      1 <0>        -0.5570
     20 N6          3.9127   -1.7479   -2.0054 N.pl3     1 <0>        -0.6349
     21 C15         4.8219   -1.6769   -3.0688 C.ar      1 <0>         0.1039
     22 C16         5.8711   -2.5832   -3.1469 C.ar      1 <0>        -0.0591
     23 C17         6.7672   -2.5133   -4.1950 C.ar      1 <0>        -0.1799
     24 C18         6.6193   -1.5366   -5.1711 C.ar      1 <0>         0.2076
     25 C19         5.5701   -0.6302   -5.0929 C.ar      1 <0>        -0.1804
     26 C20         4.6707   -0.7038   -4.0478 C.ar      1 <0>        -0.0943
     27 N7          7.5279   -1.4654   -6.2332 N.pl3     1 <0>        -0.6323
     28 C21         7.3245   -0.5165   -7.3383 C.3       1 <0>         0.1263
     29 C22         8.6169    0.2821   -7.5384 C.3       1 <0>         0.0381
     30 N8          9.7404   -0.6473   -7.7167 N.3       1 <0>        -0.5426
     31 C23         9.9494   -1.4673   -6.5158 C.3       1 <0>         0.0383
     32 C24         8.7148   -2.3333   -6.2708 C.3       1 <0>         0.1269
     33 C25        10.9672    0.0735   -8.0819 C.3       1 <0>         0.0243
     34 H1          3.9301    2.6655    2.9018 H         1 <0>         0.0525
     35 H2          2.6652    3.8500    2.4956 H         1 <0>         0.0554
     36 H3          2.5695    2.9327    4.0179 H         1 <0>         0.0546
     37 H4          1.0031    2.0175    2.3276 H         1 <0>         0.0652
     38 H5          2.3637    1.7503    1.2114 H         1 <0>         0.0622
     39 H6          3.4136    0.2214    2.8573 H         1 <0>         0.0616
     40 H7          2.0530    0.4886    3.9734 H         1 <0>         0.0668
     41 H8          0.4866   -0.4266    2.2830 H         1 <0>         0.0865
     42 H9          1.8471   -0.6938    1.1669 H         1 <0>         0.1002
     43 H10         4.3235   -5.3566    2.8451 H         1 <0>         0.1588
     44 H11         3.6865   -6.9778    4.5713 H         1 <0>         0.1611
     45 H12         1.7722   -6.5091    6.0597 H         1 <0>         0.2087
     46 H13         5.5555   -3.1664    2.6654 H         1 <0>         0.1416
     47 H14         7.1590   -2.8210    0.8064 H         1 <0>         0.1696
     48 H15         2.9788   -1.5296   -2.1504 H         1 <0>         0.4207
     49 H16         5.9863   -3.3426   -2.3877 H         1 <0>         0.1304
     50 H17         7.5834   -3.2180   -4.2556 H         1 <0>         0.1236
     51 H18         5.4552    0.1296   -5.8518 H         1 <0>         0.1251
     52 H19         3.8519   -0.0019   -3.9896 H         1 <0>         0.1230
     53 H20         7.0867   -1.0629   -8.2510 H         1 <0>         0.0695
     54 H21         6.5086    0.1631   -7.0919 H         1 <0>         0.0866
     55 H22         8.5221    0.9120   -8.4229 H         1 <0>         0.0852
     56 H23         8.7973    0.9073   -6.6639 H         1 <0>         0.0384
     57 H24        10.8209   -2.1061   -6.6588 H         1 <0>         0.0857
     58 H25        10.1112   -0.8178   -5.6556 H         1 <0>         0.0381
     59 H26         8.8176   -2.8544   -5.3190 H         1 <0>         0.0864
     60 H27         8.6132   -3.0577   -7.0789 H         1 <0>         0.0687
     61 H28        11.2211    0.7815   -7.2930 H         1 <0>         0.0257
     62 H29        11.7830   -0.6383   -8.2078 H         1 <0>         0.0701
     63 H30        10.8076    0.6122   -9.0160 H         1 <0>         0.0704
@<TRIPOS>BOND
     1    1    2 1
     2    1   34 1
     3    1   35 1
     4    1   36 1
     5    2    3 1
     6    2   37 1
     7    2   38 1
     8    3    4 1
     9    3   39 1
    10    3   40 1
    11    4    5 1
    12    4   41 1
    13    4   42 1
    14    5   13 2
    15    5    6 1
    16    6    7 2
    17    6   14 1
    18    7   12 1
    19    7    8 1
    20    8    9 2
    21    8   43 1
    22    9   10 1
    23    9   44 1
    24   10   11 2
    25   10   45 1
    26   11   12 1
    27   12   13 1
    28   14   19 ar
    29   14   15 ar
    30   15   16 ar
    31   15   46 1
    32   16   17 ar
    33   16   47 1
    34   17   18 ar
    35   18   19 ar
    36   18   20 1
    37   20   21 1
    38   20   48 1
    39   21   26 ar
    40   21   22 ar
    41   22   23 ar
    42   22   49 1
    43   23   24 ar
    44   23   50 1
    45   24   25 ar
    46   24   27 1
    47   25   26 ar
    48   25   51 1
    49   26   52 1
    50   27   32 1
    51   27   28 1
    52   28   29 1
    53   28   53 1
    54   28   54 1
    55   29   30 1
    56   29   55 1
    57   29   56 1
    58   30   31 1
    59   30   33 1
    60   31   32 1
    61   31   57 1
    62   31   58 1
    63   32   59 1
    64   32   60 1
    65   33   61 1
    66   33   62 1
    67   33   63 1
@<TRIPOS>MOLECULE
CHEMBL429743
   57    61     0     0     0
SMALL
USER_CHARGES

@<TRIPOS>ATOM
      1 C1         -1.3300    0.1029   -1.5514 C.3       1 <0>         0.0149
      2 O1         -0.4784   -0.5556   -0.6115 O.3       1 <0>        -0.2864
      3 C2          0.8614   -0.4714   -0.8278 C.ar      1 <0>         0.1348
      4 C3          1.3296    0.2258   -1.9038 C.ar      1 <0>        -0.1364
      5 C4          2.7120    0.3129   -2.1266 C.ar      1 <0>        -0.0899
      6 C5          3.2333    1.0263   -3.2293 C.ar      1 <0>         0.2830
      7 C6          4.6077    1.0685   -3.3836 C.ar      1 <0>        -0.2641
      8 C7          5.4241    0.4194   -2.4659 C.ar      1 <0>         0.2261
      9 N1          4.9295   -0.2404   -1.4451 N.ar      1 <0>        -0.4814
     10 C8          3.6103   -0.3223   -1.2349 C.ar      1 <0>         0.1817
     11 C9          3.0978   -1.0328   -0.1368 C.ar      1 <0>        -0.2357
     12 C10         1.7485   -1.0969    0.0599 C.ar      1 <0>         0.2162
     13 O2          1.2582   -1.7806    1.1270 O.3       1 <0>        -0.2775
     14 C11         2.2108   -2.3966    1.9960 C.3       1 <0>         0.0116
     15 O3          2.4118    1.6501   -4.1095 O.3       1 <0>        -0.2128
     16 C12         2.9792    2.4005   -5.0899 C.ar      1 <0>         0.0441
     17 C13         3.5739    1.7687   -6.1861 C.ar      1 <0>        -0.1346
     18 C14         4.1500    2.4949   -7.1832 C.ar      1 <0>        -0.0847
     19 C15         4.1493    3.8952   -7.1142 C.ar      1 <0>        -0.0008
     20 C16         3.5480    4.5397   -6.0055 C.ar      1 <0>        -0.0533
     21 C17         2.9566    3.7633   -4.9949 C.ar      1 <0>        -0.0781
     22 C18         3.5472    5.9439   -5.9369 C.ar      1 <0>        -0.0644
     23 C19         4.1215    6.6778   -6.9314 C.ar      1 <0>        -0.1164
     24 C20         4.7155    6.0638   -8.0266 C.ar      1 <0>        -0.0508
     25 C21         4.7399    4.6809   -8.1354 C.ar      1 <0>        -0.1284
     26 C22         5.3730    4.0359   -9.3002 C.2       1 <0>         0.5660
     27 O4          5.2978    2.8305   -9.4432 O.2       1 <0>        -0.5113
     28 N2          6.0350    4.7820  -10.2065 N.am      1 <0>        -0.6628
     29 C23         6.7115    4.1624  -11.2625 C.ar      1 <0>         0.1396
     30 C24         7.9063    4.6939  -11.7305 C.ar      1 <0>        -0.1274
     31 C25         8.5724    4.0799  -12.7729 C.ar      1 <0>        -0.0903
     32 C26         8.0502    2.9363  -13.3514 C.ar      1 <0>        -0.0443
     33 C27         6.8597    2.4049  -12.8873 C.ar      1 <0>        -0.0915
     34 C28         6.1926    3.0114  -11.8411 C.ar      1 <0>        -0.1058
     35 Cl1         8.8898    2.1673  -14.6619 Cl        1 <0>        -0.0616
     36 H1         -1.1017    1.1686   -1.5640 H         1 <0>         0.0668
     37 H2         -1.1668   -0.3154   -2.5446 H         1 <0>         0.0673
     38 H3         -2.3709   -0.0423   -1.2625 H         1 <0>         0.1187
     39 H4          0.6394    0.7077   -2.5804 H         1 <0>         0.1725
     40 H5          5.0440    1.6035   -4.2142 H         1 <0>         0.1851
     41 H6          6.4955    0.4587   -2.5965 H         1 <0>         0.2124
     42 H7          3.7695   -1.5228    0.5525 H         1 <0>         0.1714
     43 H8          2.8029   -3.1180    1.4330 H         1 <0>         0.0694
     44 H9          2.8681   -1.6340    2.4136 H         1 <0>         0.0693
     45 H10         1.6878   -2.9077    2.8044 H         1 <0>         0.1216
     46 H11         3.5766    0.6902   -6.2425 H         1 <0>         0.1385
     47 H12         4.6062    1.9941   -8.0243 H         1 <0>         0.1838
     48 H13         2.4903    4.2409   -4.1459 H         1 <0>         0.1467
     49 H14         3.0902    6.4421   -5.0947 H         1 <0>         0.1419
     50 H15         4.1142    7.7558   -6.8670 H         1 <0>         0.1435
     51 H16         5.1629    6.6690   -8.8012 H         1 <0>         0.1368
     52 H17         6.0424    5.7487  -10.1266 H         1 <0>         0.4137
     53 H18         8.3139    5.5868  -11.2799 H         1 <0>         0.1371
     54 H19         9.5015    4.4928  -13.1372 H         1 <0>         0.1411
     55 H20         6.4541    1.5125  -13.3408 H         1 <0>         0.1395
     56 H21         5.2658    2.5937  -11.4764 H         1 <0>         0.1483
     57 H22         5.5350   -0.6797   -0.8276 H         1 <0>         0.4475
@<TRIPOS>BOND
     1    1    2 1
     2    1   36 1
     3    1   37 1
     4    1   38 1
     5    2    3 1
     6    3   12 ar
     7    3    4 ar
     8    4    5 ar
     9    4   39 1
    10    5   10 ar
    11    5    6 ar
    12    6    7 ar
    13    6   15 1
    14    7    8 ar
    15    7   40 1
    16    8    9 ar
    17    8   41 1
    18    9   10 ar
    19    9   57 1
    20   10   11 ar
    21   11   12 ar
    22   11   42 1
    23   12   13 1
    24   13   14 1
    25   14   43 1
    26   14   44 1
    27   14   45 1
    28   15   16 1
    29   16   21 ar
    30   16   17 ar
    31   17   18 ar
    32   17   46 1
    33   18   19 ar
    34   18   47 1
    35   19   25 ar
    36   19   20 ar
    37   20   21 ar
    38   20   22 ar
    39   21   48 1
    40   22   23 ar
    41   22   49 1
    42   23   24 ar
    43   23   50 1
    44   24   25 ar
    45   24   51 1
    46   25   26 1
    47   26   27 2
    48   26   28 am
    49   28   29 1
    50   28   52 1
    51   29   34 ar
    52   29   30 ar
    53   30   31 ar
    54   30   53 1
    55   31   32 ar
    56   31   54 1
    57   32   33 ar
    58   32   35 1
    59   33   34 ar
    60   33   55 1
    61   34   56 1
@<TRIPOS>MOLECULE
CHEMBL244482
   52    55     0     0     0
SMALL
USER_CHARGES

@<TRIPOS>ATOM
      1 C1         -6.4876   -4.4653   -6.0523 C.3       1 <0>         0.0523
      2 O1         -5.6072   -4.0063   -7.0799 O.3       1 <0>        -0.3567
      3 C2         -4.2970   -4.2764   -6.9280 C.2       1 <0>         0.6444
      4 O2         -3.9117   -4.8852   -5.9497 O.2       1 <0>        -0.5022
      5 N1         -3.4128   -3.8715   -7.8612 N.am      1 <0>        -0.5936
      6 C3         -2.0642   -4.1496   -7.7048 C.2       1 <0>         0.3710
      7 N2         -1.4642   -4.7927   -6.7312 N.2       1 <0>        -0.4938
      8 C4         -0.1273   -4.9926   -6.7079 C.ar      1 <0>         0.0696
      9 C5          0.6378   -5.6630   -5.7258 C.ar      1 <0>        -0.0222
     10 C6          1.9871   -5.7791   -5.8499 C.ar      1 <0>        -0.1244
     11 C7          2.6674   -5.2471   -6.9414 C.ar      1 <0>         0.1461
     12 C8          1.9513   -4.5822   -7.9266 C.ar      1 <0>        -0.1436
     13 C9          0.5893   -4.4626   -7.8048 C.ar      1 <0>        -0.1115
     14 S1         -0.7011   -3.7303   -8.7820 S.3       1 <0>         0.0334
     15 O3          4.0171   -5.3768   -7.0408 O.3       1 <0>        -0.2435
     16 C10         4.6196   -4.9286   -8.1741 C.ar      1 <0>         0.0645
     17 C11         4.7984   -3.5670   -8.3724 C.ar      1 <0>        -0.1112
     18 C12         5.4103   -3.1112   -9.5233 C.ar      1 <0>        -0.1036
     19 C13         5.8471   -4.0157  -10.4820 C.ar      1 <0>         0.1624
     20 C14         5.6683   -5.3781  -10.2828 C.ar      1 <0>        -0.1269
     21 C15         5.0606   -5.8331   -9.1293 C.ar      1 <0>        -0.0957
     22 N3          6.4677   -3.5536  -11.6503 N.am      1 <0>        -0.6767
     23 C16         7.2611   -2.4650  -11.6065 C.2       1 <0>         0.7093
     24 O4          7.3730   -1.8354  -10.5723 O.2       1 <0>        -0.5479
     25 N4          7.9305   -2.0743  -12.7091 N.am      1 <0>        -0.6733
     26 C17         8.8189   -0.9935  -12.6428 C.ar      1 <0>         0.1329
     27 C18         8.6505   -0.0129  -11.6750 C.ar      1 <0>        -0.0606
     28 C19         9.5282    1.0520  -11.6119 C.ar      1 <0>        -0.1724
     29 C20        10.5745    1.1429  -12.5114 C.ar      1 <0>        -0.0586
     30 C21        10.7466    0.1686  -13.4773 C.ar      1 <0>        -0.1304
     31 C22         9.8750   -0.9033  -13.5427 C.ar      1 <0>         0.1016
     32 F1         10.0465   -1.8584  -14.4826 F         1 <0>        -0.1275
     33 C23         9.3448    2.1168  -10.5613 C.3       1 <0>         0.5127
     34 F2         10.0569    1.7636   -9.4101 F         1 <0>        -0.1719
     35 F3          9.8212    3.3389  -11.0478 F         1 <0>        -0.1745
     36 F4          7.9859    2.2364  -10.2507 F         1 <0>        -0.1730
     37 H1         -6.4195   -5.5503   -5.9733 H         1 <0>         0.0659
     38 H2         -6.2037   -4.0133   -5.1019 H         1 <0>         0.0660
     39 H3         -7.5113   -4.1824   -6.2977 H         1 <0>         0.1109
     40 H4         -3.7204   -3.3855   -8.6422 H         1 <0>         0.4368
     41 H5          0.1437   -6.0886   -4.8649 H         1 <0>         0.1458
     42 H6          2.5442   -6.2963   -5.0827 H         1 <0>         0.1477
     43 H7          2.4609   -4.1628   -8.7814 H         1 <0>         0.1415
     44 H8          4.4586   -2.8636   -7.6267 H         1 <0>         0.1382
     45 H9          5.5488   -2.0513   -9.6779 H         1 <0>         0.1504
     46 H10         6.0079   -6.0820  -11.0281 H         1 <0>         0.1375
     47 H11         4.9252   -6.8930   -8.9724 H         1 <0>         0.1407
     48 H12         6.3263   -4.0173  -12.4905 H         1 <0>         0.4130
     49 H13         7.7970   -2.5415  -13.5486 H         1 <0>         0.4167
     50 H14         7.8335   -0.0822  -10.9719 H         1 <0>         0.1790
     51 H15        11.2587    1.9769  -12.4595 H         1 <0>         0.1500
     52 H16        11.5645    0.2426  -14.1787 H         1 <0>         0.1554
@<TRIPOS>BOND
     1    1    2 1
     2    1   37 1
     3    1   38 1
     4    1   39 1
     5    2    3 1
     6    3    4 2
     7    3    5 am
     8    5    6 1
     9    5   40 1
    10    6   14 1
    11    6    7 2
    12    7    8 1
    13    8   13 ar
    14    8    9 ar
    15    9   10 ar
    16    9   41 1
    17   10   11 ar
    18   10   42 1
    19   11   12 ar
    20   11   15 1
    21   12   13 ar
    22   12   43 1
    23   13   14 1
    24   15   16 1
    25   16   21 ar
    26   16   17 ar
    27   17   18 ar
    28   17   44 1
    29   18   19 ar
    30   18   45 1
    31   19   20 ar
    32   19   22 1
    33   20   21 ar
    34   20   46 1
    35   21   47 1
    36   22   23 am
    37   22   48 1
    38   23   24 2
    39   23   25 am
    40   25   26 1
    41   25   49 1
    42   26   31 ar
    43   26   27 ar
    44   27   28 ar
    45   27   50 1
    46   28   29 ar
    47   28   33 1
    48   29   30 ar
    49   29   51 1
    50   30   31 ar
    51   30   52 1
    52   31   32 1
    53   33   34 1
    54   33   35 1
    55   33   36 1
@<TRIPOS>MOLECULE
CHEMBL244101
   52    55     0     0     0
SMALL
USER_CHARGES

@<TRIPOS>ATOM
      1 C1         -5.2460   -2.2081    9.3188 C.3       1 <0>         0.0490
      2 O1         -4.8132   -3.3561    8.5861 O.3       1 <0>        -0.3437
      3 C2         -3.4915   -3.4734    8.3586 C.2       1 <0>         0.6651
      4 O2         -2.7265   -2.6244    8.7708 O.2       1 <0>        -0.5557
      5 N1         -3.0170   -4.5326    7.6735 N.am      1 <0>        -0.6035
      6 C3         -1.6591   -4.6531    7.4397 C.2       1 <0>         0.5498
      7 N2         -1.0928   -5.6351    6.7829 N.2       1 <0>        -0.4985
      8 C4          0.2491   -5.4436    6.7384 C.ar      1 <0>         0.3145
      9 C5          0.5146   -4.2468    7.4252 C.ar      1 <0>        -0.0338
     10 N3         -0.7112   -3.7645    7.8536 N.pl3     1 <0>        -0.5784
     11 C6          1.8232   -3.7978    7.5387 C.ar      1 <0>        -0.0190
     12 C7          2.8290   -4.5551    6.9641 C.ar      1 <0>        -0.1662
     13 C8          2.5023   -5.7313    6.2968 C.ar      1 <0>         0.3407
     14 N4          1.2505   -6.1394    6.2011 N.ar      1 <0>        -0.4950
     15 O3          3.4892   -6.4733    5.7336 O.3       1 <0>        -0.2422
     16 C9          3.1522   -7.6680    5.1789 C.ar      1 <0>         0.0812
     17 C10         2.5043   -7.7051    3.9527 C.ar      1 <0>        -0.0860
     18 C11         2.1614   -8.9181    3.3891 C.ar      1 <0>        -0.1030
     19 C12         2.4655  -10.1010    4.0496 C.ar      1 <0>         0.1593
     20 C13         3.1144  -10.0633    5.2766 C.ar      1 <0>        -0.1298
     21 C14         3.4614   -8.8498    5.8367 C.ar      1 <0>        -0.0955
     22 N5          2.1174  -11.3322    3.4784 N.am      1 <0>        -0.6753
     23 C15         2.1646  -11.4920    2.1410 C.2       1 <0>         0.7089
     24 O4          2.4282  -10.5455    1.4245 O.2       1 <0>        -0.5487
     25 N6          1.9195  -12.7008    1.5977 N.am      1 <0>        -0.6744
     26 C16         2.0512  -12.8872    0.2157 C.ar      1 <0>         0.1352
     27 C17         1.9079  -11.8104   -0.6483 C.ar      1 <0>        -0.0610
     28 C18         2.0389  -11.9970   -2.0108 C.ar      1 <0>        -0.1725
     29 C19         2.3126  -13.2550   -2.5155 C.ar      1 <0>        -0.0601
     30 C20         2.4562  -14.3309   -1.6590 C.ar      1 <0>        -0.1306
     31 C21         2.3317  -14.1503   -0.2934 C.ar      1 <0>         0.1003
     32 F1          2.4775  -15.2003    0.5440 F         1 <0>        -0.1279
     33 C22         1.8827  -10.8278   -2.9487 C.3       1 <0>         0.5126
     34 F2          3.1272  -10.2206   -3.1483 F         1 <0>        -0.1722
     35 F3          1.3811  -11.2773   -4.1749 F         1 <0>        -0.1750
     36 F4          0.9948   -9.9000   -2.3936 F         1 <0>        -0.1726
     37 H1         -4.9602   -1.3045    8.7805 H         1 <0>         0.0692
     38 H2         -6.3298   -2.2364    9.4316 H         1 <0>         0.1155
     39 H3         -4.7782   -2.2078   10.3033 H         1 <0>         0.0691
     40 H4         -3.6278   -5.2105    7.3444 H         1 <0>         0.4460
     41 H5          2.0506   -2.8807    8.0618 H         1 <0>         0.1490
     42 H6          3.8584   -4.2356    7.0327 H         1 <0>         0.1574
     43 H7          2.2678   -6.7850    3.4390 H         1 <0>         0.1307
     44 H8          1.6564   -8.9469    2.4349 H         1 <0>         0.1465
     45 H9          3.3509  -10.9830    5.7910 H         1 <0>         0.1337
     46 H10         3.9700   -8.8205    6.7890 H         1 <0>         0.1354
     47 H11         1.8425  -12.0695    4.0456 H         1 <0>         0.4117
     48 H12         1.6518  -13.4416    2.1637 H         1 <0>         0.4162
     49 H13         1.6938  -10.8273   -0.2556 H         1 <0>         0.1796
     50 H14         2.4140  -13.3975   -3.5812 H         1 <0>         0.1493
     51 H15         2.6696  -15.3122   -2.0563 H         1 <0>         0.1547
     52 H16        -0.8660   -2.9491    8.3557 H         1 <0>         0.4398
@<TRIPOS>BOND
     1    1    2 1
     2    1   37 1
     3    1   38 1
     4    1   39 1
     5    2    3 1
     6    3    4 2
     7    3    5 am
     8    5    6 1
     9    5   40 1
    10    6   10 1
    11    6    7 2
    12    7    8 1
    13    8   14 ar
    14    8    9 ar
    15    9   10 1
    16    9   11 ar
    17   10   52 1
    18   11   12 ar
    19   11   41 1
    20   12   13 ar
    21   12   42 1
    22   13   14 ar
    23   13   15 1
    24   15   16 1
    25   16   21 ar
    26   16   17 ar
    27   17   18 ar
    28   17   43 1
    29   18   19 ar
    30   18   44 1
    31   19   20 ar
    32   19   22 1
    33   20   21 ar
    34   20   45 1
    35   21   46 1
    36   22   23 am
    37   22   47 1
    38   23   24 2
    39   23   25 am
    40   25   26 1
    41   25   48 1
    42   26   31 ar
    43   26   27 ar
    44   27   28 ar
    45   27   49 1
    46   28   29 ar
    47   28   33 1
    48   29   30 ar
    49   29   50 1
    50   30   31 ar
    51   30   51 1
    52   31   32 1
    53   33   34 1
    54   33   35 1
    55   33   36 1
@<TRIPOS>MOLECULE
CHEMBL244101__1
   51    54     0     0     0
SMALL
USER_CHARGES

@<TRIPOS>ATOM
      1 C1         -5.5755   -1.1812    8.9905 C.3       1 <0>         0.0580
      2 O1         -5.2140   -2.4497    8.4405 O.3       1 <0>        -0.3741
      3 C2         -5.6259   -2.7117    7.1858 C.2       1 <0>         0.6376
      4 O2         -6.2745   -1.8860    6.5745 O.2       1 <0>        -0.5119
      5 N1         -5.3187   -3.8898    6.6079 N.am      1 <0>        -0.5965
      6 C3         -5.7424   -4.1594    5.3171 C.2       1 <0>         0.4289
      7 N2         -6.4695   -3.3066    4.5353 N.2       1 <0>        -0.5443
      8 C4         -6.6890   -3.9390    3.3273 C.ar      1 <0>         0.2349
      9 C5         -6.0647   -5.1936    3.4283 C.ar      1 <0>        -0.0417
     10 N3         -5.5014   -5.2660    4.6627 N.2       1 <0>        -0.5869
     11 C6         -6.1199   -6.0703    2.3397 C.ar      1 <0>        -0.0215
     12 C7         -6.7909   -5.6611    1.2044 C.ar      1 <0>        -0.2155
     13 C8         -7.3859   -4.4035    1.1760 C.ar      1 <0>         0.2905
     14 N4         -7.3208   -3.5917    2.2169 N.ar      1 <0>        -0.5090
     15 O3         -8.0450   -4.0033    0.0592 O.3       1 <0>        -0.2628
     16 C9         -8.7030   -2.8141    0.0980 C.ar      1 <0>         0.1119
     17 C10        -7.9910   -1.6251    0.0334 C.ar      1 <0>        -0.0904
     18 C11        -8.6588   -0.4172    0.0732 C.ar      1 <0>        -0.1002
     19 C12       -10.0431   -0.3926    0.1774 C.ar      1 <0>         0.1390
     20 C13       -10.7552   -1.5828    0.2415 C.ar      1 <0>        -0.1290
     21 C14       -10.0868   -2.7902    0.1964 C.ar      1 <0>        -0.1070
     22 N5        -10.7212    0.8329    0.2183 N.am      1 <0>        -0.6706
     23 C15       -10.2653    1.8796   -0.4980 C.2       1 <0>         0.7069
     24 O4         -9.2207    1.7863   -1.1134 O.2       1 <0>        -0.5491
     25 N6        -10.9672    3.0297   -0.5322 N.am      1 <0>        -0.6771
     26 C16       -10.5383    4.0881   -1.3432 C.ar      1 <0>         0.1417
     27 C17        -9.1983    4.2026   -1.6865 C.ar      1 <0>        -0.0615
     28 C18        -8.7780    5.2475   -2.4865 C.ar      1 <0>        -0.1719
     29 C19        -9.6901    6.1797   -2.9460 C.ar      1 <0>        -0.0645
     30 C20       -11.0261    6.0700   -2.6069 C.ar      1 <0>        -0.1318
     31 C21       -11.4548    5.0232   -1.8110 C.ar      1 <0>         0.0963
     32 F1        -12.7610    4.9124   -1.4845 F         1 <0>        -0.1292
     33 C22        -7.3230    5.3719   -2.8586 C.3       1 <0>         0.5124
     34 F2         -7.0843    4.6736   -4.0472 F         1 <0>        -0.1727
     35 F3         -7.0013    6.7215   -3.0380 F         1 <0>        -0.1770
     36 F4         -6.5327    4.8360   -1.8362 F         1 <0>        -0.1707
     37 H1         -5.1821   -1.0991   10.0037 H         1 <0>         0.0983
     38 H2         -5.1587   -0.3855    8.3732 H         1 <0>         0.0584
     39 H3         -6.6616   -1.0917    9.0140 H         1 <0>         0.0581
     40 H4         -4.8008   -4.5490    7.0960 H         1 <0>         0.4161
     41 H5         -5.6497   -7.0415    2.3859 H         1 <0>         0.1209
     42 H6         -6.8532   -6.3121    0.3449 H         1 <0>         0.1251
     43 H7         -6.9142   -1.6444   -0.0477 H         1 <0>         0.1283
     44 H8         -8.1043    0.5084    0.0236 H         1 <0>         0.1409
     45 H9        -11.8320   -1.5643    0.3229 H         1 <0>         0.1271
     46 H10       -10.6409   -3.7161    0.2418 H         1 <0>         0.1312
     47 H11       -11.5188    0.9280    0.7621 H         1 <0>         0.4088
     48 H12       -11.7694    3.1244    0.0049 H         1 <0>         0.4150
     49 H13        -8.4846    3.4755   -1.3281 H         1 <0>         0.1813
     50 H14        -9.3582    6.9955   -3.5710 H         1 <0>         0.1473
     51 H15       -11.7360    6.7998   -2.9671 H         1 <0>         0.1525
@<TRIPOS>BOND
     1    1    2 1
     2    1   37 1
     3    1   38 1
     4    1   39 1
     5    2    3 1
     6    3    4 2
     7    3    5 am
     8    5    6 1
     9    5   40 1
    10    6   10 2
    11    6    7 1
    12    7    8 1
    13    8   14 ar
    14    8    9 ar
    15    9   10 1
    16    9   11 ar
    17   11   12 ar
    18   11   41 1
    19   12   13 ar
    20   12   42 1
    21   13   14 ar
    22   13   15 1
    23   15   16 1
    24   16   21 ar
    25   16   17 ar
    26   17   18 ar
    27   17   43 1
    28   18   19 ar
    29   18   44 1
    30   19   20 ar
    31   19   22 1
    32   20   21 ar
    33   20   45 1
    34   21   46 1
    35   22   23 am
    36   22   47 1
    37   23   24 2
    38   23   25 am
    39   25   26 1
    40   25   48 1
    41   26   31 ar
    42   26   27 ar
    43   27   28 ar
    44   27   49 1
    45   28   29 ar
    46   28   33 1
    47   29   30 ar
    48   29   50 1
    49   30   31 ar
    50   30   51 1
    51   31   32 1
    52   33   34 1
    53   33   35 1
    54   33   36 1
@<TRIPOS>MOLECULE
CHEMBL243915
   53    56     0     0     0
SMALL
USER_CHARGES

@<TRIPOS>ATOM
      1 C1          5.2090   -6.2395    2.3119 C.3       1 <0>         0.0522
      2 O1          3.9763   -5.7996    1.7385 O.3       1 <0>        -0.3548
      3 C2          3.9815   -5.5146    0.4225 C.2       1 <0>         0.6585
      4 O2          5.0048   -5.6361   -0.2215 O.2       1 <0>        -0.5521
      5 N1          2.8517   -5.0945   -0.1805 N.am      1 <0>        -0.6101
      6 C3          2.8571   -4.7976   -1.5515 C.2       1 <0>         0.2954
      7 C4          3.9276   -4.8967   -2.3807 C.2       1 <0>        -0.0888
      8 N2          3.5075   -4.5162   -3.6281 N.pl3     1 <0>        -0.3467
      9 C5          4.1520   -4.4238   -4.8292 C.2       1 <0>         0.0644
     10 C6          3.4894   -4.0104   -5.9358 C.2       1 <0>         0.0674
     11 C7          2.1252   -3.6715   -5.8580 C.2       1 <0>        -0.1173
     12 C8          1.4763   -3.7613   -4.6659 C.2       1 <0>        -0.0594
     13 C9          2.1807   -4.1925   -3.5248 C.2       1 <0>         0.2382
     14 N3          1.8073   -4.3747   -2.2638 N.2       1 <0>        -0.4964
     15 O3          4.1436   -3.9222   -7.1251 O.3       1 <0>        -0.2409
     16 C10         4.3116   -2.6886   -7.6712 C.ar      1 <0>         0.1044
     17 C11         3.9258   -1.5588   -6.9641 C.ar      1 <0>        -0.1712
     18 C12         4.0966   -0.3056   -7.5181 C.ar      1 <0>        -0.0774
     19 C13         4.6546   -0.1760   -8.7829 C.ar      1 <0>         0.1278
     20 C14         5.0405   -1.3069   -9.4900 C.ar      1 <0>        -0.1028
     21 C15         4.8741   -2.5594   -8.9329 C.ar      1 <0>        -0.1190
     22 N4          4.8277    1.0955   -9.3457 N.am      1 <0>        -0.6745
     23 C16         5.1506    2.1419   -8.5601 C.2       1 <0>         0.7084
     24 O4          5.2076    2.0016   -7.3536 O.2       1 <0>        -0.5510
     25 N5          5.4103    3.3439   -9.1117 N.am      1 <0>        -0.6745
     26 C17         5.8348    4.4076   -8.3053 C.ar      1 <0>         0.1340
     27 C18         5.4902    4.4421   -6.9612 C.ar      1 <0>        -0.0599
     28 C19         5.9102    5.4924   -6.1681 C.ar      1 <0>        -0.1728
     29 C20         6.6735    6.5096   -6.7111 C.ar      1 <0>        -0.0591
     30 C21         7.0195    6.4798   -8.0495 C.ar      1 <0>        -0.1305
     31 C22         6.6072    5.4284   -8.8480 C.ar      1 <0>         0.1012
     32 F1          6.9502    5.3960  -10.1544 F         1 <0>        -0.1276
     33 C23         5.5355    5.5299   -4.7089 C.3       1 <0>         0.5126
     34 F2          6.5184    4.8761   -3.9581 F         1 <0>        -0.1722
     35 F3          5.4346    6.8601   -4.2875 F         1 <0>        -0.1745
     36 F4          4.3057    4.8884   -4.5267 F         1 <0>        -0.1730
     37 H1          5.5348   -7.1536    1.8156 H         1 <0>         0.0655
     38 H2          5.9663   -5.4662    2.1827 H         1 <0>         0.0657
     39 H3          5.0663   -6.4343    3.3748 H         1 <0>         0.1097
     40 H4          2.0348   -4.9975    0.3335 H         1 <0>         0.4272
     41 H5          4.9229   -5.2155   -2.1083 H         1 <0>         0.2132
     42 H6          5.1985   -4.6821   -4.8968 H         1 <0>         0.1758
     43 H7          1.5968   -3.3416   -6.7402 H         1 <0>         0.1532
     44 H8          0.4299   -3.5035   -4.5947 H         1 <0>         0.1628
     45 H9          3.4914   -1.6597   -5.9805 H         1 <0>         0.1332
     46 H10         3.7959    0.5737   -6.9678 H         1 <0>         0.1464
     47 H11         5.4746   -1.2067  -10.4738 H         1 <0>         0.1373
     48 H12         5.1781   -3.4388   -9.4812 H         1 <0>         0.1410
     49 H13         4.7151    1.2226  -10.3007 H         1 <0>         0.4115
     50 H14         5.3033    3.4724  -10.0672 H         1 <0>         0.4162
     51 H15         4.8938    3.6486   -6.5357 H         1 <0>         0.1781
     52 H16         6.9999    7.3294   -6.0884 H         1 <0>         0.1497
     53 H17         7.6154    7.2759   -8.4707 H         1 <0>         0.1552
@<TRIPOS>BOND
     1    1    2 1
     2    1   37 1
     3    1   38 1
     4    1   39 1
     5    2    3 1
     6    3    4 2
     7    3    5 am
     8    5    6 1
     9    5   40 1
    10    6   14 1
    11    6    7 2
    12    7    8 1
    13    7   41 1
    14    8   13 1
    15    8    9 1
    16    9   10 2
    17    9   42 1
    18   10   11 1
    19   10   15 1
    20   11   12 2
    21   11   43 1
    22   12   13 1
    23   12   44 1
    24   13   14 2
    25   15   16 1
    26   16   21 ar
    27   16   17 ar
    28   17   18 ar
    29   17   45 1
    30   18   19 ar
    31   18   46 1
    32   19   20 ar
    33   19   22 1
    34   20   21 ar
    35   20   47 1
    36   21   48 1
    37   22   23 am
    38   22   49 1
    39   23   24 2
    40   23   25 am
    41   25   26 1
    42   25   50 1
    43   26   31 ar
    44   26   27 ar
    45   27   28 ar
    46   27   51 1
    47   28   29 ar
    48   28   33 1
    49   29   30 ar
    50   29   52 1
    51   30   31 ar
    52   30   53 1
    53   31   32 1
    54   33   34 1
    55   33   35 1
    56   33   36 1
@<TRIPOS>MOLECULE
CHEMBL243914
   52    55     0     0     0
SMALL
USER_CHARGES

@<TRIPOS>ATOM
      1 C1         -0.3334    2.5279   -2.0299 C.3       1 <0>         0.0519
      2 O1         -0.5583    1.6882   -3.1640 O.3       1 <0>        -0.3523
      3 C2          0.2162    0.5928   -3.2766 C.2       1 <0>         0.6541
      4 O2          1.0600    0.3563   -2.4351 O.2       1 <0>        -0.4926
      5 N1          0.0556   -0.2415   -4.3229 N.am      1 <0>        -0.5962
      6 C3          0.8513   -1.3667   -4.4386 C.2       1 <0>         0.4855
      7 N2          1.7813   -1.7162   -3.5898 N.2       1 <0>        -0.4503
      8 C4          2.3562   -2.8726   -4.0232 C.ar      1 <0>         0.0424
      9 C5          3.3774   -3.6847   -3.5276 C.ar      1 <0>        -0.0426
     10 C6          3.7419   -4.8215   -4.2138 C.ar      1 <0>        -0.1107
     11 C7          3.0978   -5.1642   -5.3985 C.ar      1 <0>         0.1111
     12 C8          2.0833   -4.3659   -5.8993 C.ar      1 <0>        -0.1079
     13 C9          1.7074   -3.2198   -5.2176 C.ar      1 <0>         0.0241
     14 O3          0.7765   -2.2634   -5.4380 O.3       1 <0>        -0.2158
     15 O4          3.4666   -6.2884   -6.0679 O.3       1 <0>        -0.2453
     16 C10         4.0412   -6.1431   -7.2914 C.ar      1 <0>         0.1061
     17 C11         4.3449   -4.8762   -7.7689 C.ar      1 <0>        -0.1734
     18 C12         4.9285   -4.7281   -9.0115 C.ar      1 <0>        -0.0773
     19 C13         5.2121   -5.8472   -9.7830 C.ar      1 <0>         0.1261
     20 C14         4.9085   -7.1147   -9.3044 C.ar      1 <0>        -0.1029
     21 C15         4.3292   -7.2620   -8.0597 C.ar      1 <0>        -0.1202
     22 N3          5.8040   -5.6974  -11.0442 N.am      1 <0>        -0.6742
     23 C16         6.7053   -4.7175  -11.2535 C.2       1 <0>         0.7081
     24 O5          6.9454   -3.9140  -10.3730 O.2       1 <0>        -0.5507
     25 N4          7.3406   -4.6281  -12.4388 N.am      1 <0>        -0.6745
     26 C17         8.3329   -3.6583  -12.6302 C.ar      1 <0>         0.1346
     27 C18         8.3195   -2.4915  -11.8784 C.ar      1 <0>        -0.0607
     28 C19         9.2994   -1.5366  -12.0693 C.ar      1 <0>        -0.1726
     29 C20        10.2938   -1.7411  -13.0082 C.ar      1 <0>        -0.0595
     30 C21        10.3115   -2.9017  -13.7596 C.ar      1 <0>        -0.1303
     31 C22         9.3369   -3.8645  -13.5697 C.ar      1 <0>         0.1007
     32 F1          9.3575   -5.0013  -14.2995 F         1 <0>        -0.1277
     33 C23         9.2843   -0.2697  -11.2533 C.3       1 <0>         0.5126
     34 F2         10.0261   -0.4602  -10.0826 F         1 <0>        -0.1720
     35 F3          9.8480    0.7716  -11.9984 F         1 <0>        -0.1746
     36 F4          7.9647    0.0555  -10.9215 F         1 <0>        -0.1732
     37 H1         -0.4992    1.9568   -1.1164 H         1 <0>         0.0679
     38 H2          0.6926    2.8953   -2.0476 H         1 <0>         0.0680
     39 H3         -1.0222    3.3721   -2.0606 H         1 <0>         0.1130
     40 H4         -0.6181   -0.0526   -4.9948 H         1 <0>         0.4357
     41 H5          3.8806   -3.4220   -2.6088 H         1 <0>         0.1509
     42 H6          4.5320   -5.4501   -3.8307 H         1 <0>         0.1516
     43 H7          1.5865   -4.6358   -6.8195 H         1 <0>         0.1452
     44 H8          4.1243   -4.0058   -7.1688 H         1 <0>         0.1337
     45 H9          5.1642   -3.7419   -9.3834 H         1 <0>         0.1456
     46 H10         5.1284   -7.9855   -9.9043 H         1 <0>         0.1370
     47 H11         4.0968   -8.2481   -7.6856 H         1 <0>         0.1410
     48 H12         5.5650   -6.2989  -11.7667 H         1 <0>         0.4113
     49 H13         7.1106   -5.2355  -13.1593 H         1 <0>         0.4161
     50 H14         7.5433   -2.3302  -11.1450 H         1 <0>         0.1784
     51 H15        11.0581   -0.9924  -13.1552 H         1 <0>         0.1497
     52 H16        11.0893   -3.0583  -14.4923 H         1 <0>         0.1551
@<TRIPOS>BOND
     1    1    2 1
     2    1   37 1
     3    1   38 1
     4    1   39 1
     5    2    3 1
     6    3    4 2
     7    3    5 am
     8    5    6 1
     9    5   40 1
    10    6   14 1
    11    6    7 2
    12    7    8 1
    13    8   13 ar
    14    8    9 ar
    15    9   10 ar
    16    9   41 1
    17   10   11 ar
    18   10   42 1
    19   11   12 ar
    20   11   15 1
    21   12   13 ar
    22   12   43 1
    23   13   14 1
    24   15   16 1
    25   16   21 ar
    26   16   17 ar
    27   17   18 ar
    28   17   44 1
    29   18   19 ar
    30   18   45 1
    31   19   20 ar
    32   19   22 1
    33   20   21 ar
    34   20   46 1
    35   21   47 1
    36   22   23 am
    37   22   48 1
    38   23   24 2
    39   23   25 am
    40   25   26 1
    41   25   49 1
    42   26   31 ar
    43   26   27 ar
    44   27   28 ar
    45   27   50 1
    46   28   29 ar
    47   28   33 1
    48   29   30 ar
    49   29   51 1
    50   30   31 ar
    51   30   52 1
    52   31   32 1
    53   33   34 1
    54   33   35 1
    55   33   36 1
@<TRIPOS>MOLECULE
CHEMBL389333
   70    74     0     0     0
SMALL
USER_CHARGES

@<TRIPOS>ATOM
      1 C1         -0.1085    1.2812   -0.1072 C.3       1 <0>        -0.0455
      2 N1         -0.0782   -0.1874   -0.0903 N.4       1 <0>        -0.3889
      3 C2         -1.4526   -0.7051   -0.0677 C.3       1 <0>        -0.0010
      4 C3         -1.4217   -2.2350   -0.0691 C.3       1 <0>         0.0258
      5 N2         -0.6822   -2.7083    1.1096 N.3       1 <0>        -0.5270
      6 C4          0.6884   -2.1777    1.1136 C.3       1 <0>         0.0205
      7 C5          0.6402   -0.6483    1.1052 C.3       1 <0>         0.0008
      8 C6         -0.6788   -4.1759    1.1746 C.3       1 <0>         0.0630
      9 C7         -0.1327   -4.6184    2.5077 C.2       1 <0>         0.5067
     10 O1          0.2199   -3.7904    3.3253 O.2       1 <0>        -0.5824
     11 N3         -0.0365   -5.9139    2.7896 N.2       1 <0>        -0.6706
     12 C8          0.5385   -6.3071    3.9233 C.2       1 <0>         0.6603
     13 N4          0.9666   -5.4830    4.9156 N.pl3     1 <0>        -0.6022
     14 H1          0.9050   -4.5150    4.9164 H         1 <0>         0.4510
     15 C9          1.5083   -6.2657    5.9301 C.ar      1 <0>         0.0914
     16 C10         2.0822   -5.9611    7.1557 C.ar      1 <0>        -0.1173
     17 C11         2.5432   -6.9803    7.9732 C.ar      1 <0>         0.1113
     18 C12         2.4317   -8.3045    7.5683 C.ar      1 <0>        -0.0996
     19 C13         1.8614   -8.6130    6.3498 C.ar      1 <0>        -0.0762
     20 C14         1.3974   -7.5980    5.5254 C.ar      1 <0>         0.0824
     21 N5          0.7850   -7.5960    4.2744 N.pl3     1 <0>        -0.5828
     22 O2          3.1063   -6.6838    9.1744 O.3       1 <0>        -0.2494
     23 C15         2.2831   -6.3160   10.1919 C.ar      1 <0>         0.1048
     24 C16         2.8026   -6.0966   11.4595 C.ar      1 <0>        -0.1162
     25 C17         1.9668   -5.7234   12.4934 C.ar      1 <0>        -0.0776
     26 C18         0.6064   -5.5674   12.2642 C.ar      1 <0>         0.1343
     27 C19         0.0870   -5.7866   10.9953 C.ar      1 <0>        -0.1037
     28 C20         0.9245   -6.1547    9.9609 C.ar      1 <0>        -0.1749
     29 N6         -0.2423   -5.1892   13.3131 N.am      1 <0>        -0.6767
     30 C21         0.1985   -4.3427   14.2648 C.2       1 <0>         0.7082
     31 O3          1.2959   -3.8295   14.1610 O.2       1 <0>        -0.5498
     32 N7         -0.5772   -4.0650   15.3314 N.am      1 <0>        -0.6737
     33 C22        -0.1550   -3.1231   16.2782 C.ar      1 <0>         0.1318
     34 C23         1.1985   -2.8670   16.4489 C.ar      1 <0>        -0.0604
     35 C24         1.6121   -1.9375   17.3835 C.ar      1 <0>        -0.1725
     36 C25         0.6800   -1.2616   18.1492 C.ar      1 <0>        -0.0579
     37 C26        -0.6694   -1.5131   17.9829 C.ar      1 <0>        -0.1301
     38 C27        -1.0909   -2.4382   17.0451 C.ar      1 <0>         0.1014
     39 F1         -2.4096   -2.6798   16.8782 F         1 <0>        -0.1277
     40 C28         3.0817   -1.6600   17.5690 C.3       1 <0>         0.5128
     41 F2          3.4730   -0.6261   16.7116 F         1 <0>        -0.1727
     42 F3          3.3212   -1.2823   18.8946 F         1 <0>        -0.1736
     43 F4          3.8152   -2.8140   17.2731 F         1 <0>        -0.1728
     44 H2          0.9113    1.6655   -0.1252 H         1 <0>         0.1237
     45 H3         -0.6416    1.6233   -0.9942 H         1 <0>         0.1239
     46 H4         -0.6179    1.6443    0.7854 H         1 <0>         0.1227
     47 H5         -1.9588   -0.3527    0.8311 H         1 <0>         0.1376
     48 H6         -1.9884   -0.3517   -0.9486 H         1 <0>         0.1366
     49 H7         -2.4412   -2.6194   -0.0372 H         1 <0>         0.1248
     50 H8         -0.9276   -2.5880   -0.9743 H         1 <0>         0.0619
     51 H9          1.2084   -2.5203    2.0082 H         1 <0>         0.1364
     52 H10         1.2173   -2.5298    0.2278 H         1 <0>         0.0554
     53 H11         1.6558   -0.2528    1.0938 H         1 <0>         0.1342
     54 H12         0.1232   -0.2962    1.9979 H         1 <0>         0.1381
     55 H13        -1.6969   -4.5471    1.0577 H         1 <0>         0.1190
     56 H14        -0.0531   -4.5735    0.3756 H         1 <0>         0.0781
     57 H15         0.5732   -8.3801    3.7440 H         1 <0>         0.4501
     58 H16         2.1699   -4.9321    7.4717 H         1 <0>         0.1449
     59 H17         2.7929   -9.0954    8.2090 H         1 <0>         0.1537
     60 H18         1.7767   -9.6436    6.0381 H         1 <0>         0.1502
     61 H19         3.8609   -6.2180   11.6377 H         1 <0>         0.1414
     62 H20         2.3713   -5.5533   13.4803 H         1 <0>         0.1460
     63 H21        -0.9711   -5.6654   10.8165 H         1 <0>         0.1310
     64 H22         0.5213   -6.3209    8.9729 H         1 <0>         0.1321
     65 H23        -1.1470   -5.5366   13.3543 H         1 <0>         0.4115
     66 H24        -1.4278   -4.5175   15.4435 H         1 <0>         0.4165
     67 H25         1.9278   -3.3943   15.8519 H         1 <0>         0.1789
     68 H26         1.0068   -0.5358   18.8792 H         1 <0>         0.1505
     69 H27        -1.3949   -0.9838   18.5827 H         1 <0>         0.1557
     70 H28         0.3938   -0.5234   -0.9164 H         1 <0>         0.4217
@<TRIPOS>BOND
     1    1    2 1
     2    1   44 1
     3    1   45 1
     4    1   46 1
     5    2    7 1
     6    2    3 1
     7    2   70 1
     8    3    4 1
     9    3   47 1
    10    3   48 1
    11    4    5 1
    12    4   49 1
    13    4   50 1
    14    5    6 1
    15    5    8 1
    16    6    7 1
    17    6   51 1
    18    6   52 1
    19    7   53 1
    20    7   54 1
    21    8    9 1
    22    8   55 1
    23    8   56 1
    24    9   10 2
    25    9   11 1
    26   11   12 2
    27   12   21 1
    28   12   13 1
    29   13   15 1
    30   13   14 1
    31   15   16 ar
    32   15   20 ar
    33   16   17 ar
    34   16   58 1
    35   17   18 ar
    36   17   22 1
    37   18   19 ar
    38   18   59 1
    39   19   20 ar
    40   19   60 1
    41   20   21 1
    42   21   57 1
    43   22   23 1
    44   23   28 ar
    45   23   24 ar
    46   24   25 ar
    47   24   61 1
    48   25   26 ar
    49   25   62 1
    50   26   27 ar
    51   26   29 1
    52   27   28 ar
    53   27   63 1
    54   28   64 1
    55   29   30 am
    56   29   65 1
    57   30   31 2
    58   30   32 am
    59   32   33 1
    60   32   66 1
    61   33   38 ar
    62   33   34 ar
    63   34   35 ar
    64   34   67 1
    65   35   36 ar
    66   35   40 1
    67   36   37 ar
    68   36   68 1
    69   37   38 ar
    70   37   69 1
    71   38   39 1
    72   40   41 1
    73   40   42 1
    74   40   43 1
@<TRIPOS>MOLECULE
CHEMBL389333__1
   70    74     0     0     0
SMALL
USER_CHARGES

@<TRIPOS>ATOM
      1 C1          0.1383    1.6164    0.1698 C.3       1 <0>        -0.0454
      2 N1          0.1414    0.1477    0.1403 N.4       1 <0>        -0.3889
      3 C2         -1.2425   -0.3446    0.1342 C.3       1 <0>        -0.0010
      4 C3         -1.2398   -1.8740    0.0845 C.3       1 <0>         0.0257
      5 N2         -0.5203   -2.3981    1.2541 N.3       1 <0>        -0.5267
      6 C4          0.8598   -1.8937    1.2870 C.3       1 <0>         0.0206
      7 C5          0.8398   -0.3641    1.3268 C.3       1 <0>         0.0008
      8 C6         -0.5446   -3.8668    1.2724 C.3       1 <0>         0.0628
      9 C7         -0.0194   -4.3614    2.5956 C.2       1 <0>         0.5072
     10 O1          0.3407   -3.5664    3.4422 O.2       1 <0>        -0.5830
     11 N3          0.0502   -5.6667    2.8370 N.2       1 <0>        -0.6708
     12 C8          0.6073   -6.1063    3.9626 C.2       1 <0>         0.6604
     13 N4          0.8317   -7.4104    4.2725 N.pl3     1 <0>        -0.5831
     14 H1          0.6137   -8.1727    3.7137 H         1 <0>         0.4499
     15 C9          1.4276   -7.4646    5.5283 C.ar      1 <0>         0.0982
     16 C10         1.8660   -8.5138    6.3228 C.ar      1 <0>        -0.1146
     17 C11         2.4341   -8.2516    7.5589 C.ar      1 <0>         0.1109
     18 C12         2.5654   -6.9420    8.0033 C.ar      1 <0>        -0.0985
     19 C13         2.1309   -5.8944    7.2166 C.ar      1 <0>        -0.0795
     20 C14         1.5608   -6.1487    5.9775 C.ar      1 <0>         0.0761
     21 N5          1.0470   -5.3222    4.9811 N.pl3     1 <0>        -0.6016
     22 O2          2.8638   -9.2786    8.3391 O.3       1 <0>        -0.2486
     23 C15         4.0262   -9.8960    7.9984 C.ar      1 <0>         0.1047
     24 C16         4.5523  -10.8846    8.8175 C.ar      1 <0>        -0.1157
     25 C17         5.7331  -11.5116    8.4722 C.ar      1 <0>        -0.0774
     26 C18         6.3937  -11.1529    7.3048 C.ar      1 <0>         0.1345
     27 C19         5.8666  -10.1638    6.4853 C.ar      1 <0>        -0.1041
     28 C20         4.6830   -9.5411    6.8289 C.ar      1 <0>        -0.1753
     29 N6          7.5923  -11.7885    6.9541 N.am      1 <0>        -0.6768
     30 C21         7.7732  -13.0924    7.2433 C.2       1 <0>         0.7080
     31 O3          6.8615  -13.7422    7.7177 O.2       1 <0>        -0.5489
     32 N7          8.9647  -13.6761    7.0066 N.am      1 <0>        -0.6737
     33 C22         9.1285  -15.0493    7.2293 C.ar      1 <0>         0.1315
     34 C23         8.3202  -15.7065    8.1465 C.ar      1 <0>        -0.0603
     35 C24         8.4839  -17.0608    8.3642 C.ar      1 <0>        -0.1723
     36 C25         9.4518  -17.7630    7.6698 C.ar      1 <0>        -0.0577
     37 C26        10.2595  -17.1129    6.7550 C.ar      1 <0>        -0.1301
     38 C27        10.0973  -15.7583    6.5279 C.ar      1 <0>         0.1013
     39 F1         10.8823  -15.1240    5.6297 F         1 <0>        -0.1280
     40 C28         7.6065  -17.7741    9.3605 C.3       1 <0>         0.5127
     41 F2          6.4620  -18.2537    8.7146 F         1 <0>        -0.1722
     42 F3          8.3109  -18.8463    9.9186 F         1 <0>        -0.1737
     43 F4          7.2322  -16.8844   10.3732 F         1 <0>        -0.1730
     44 H2          1.1652    1.9819    0.1730 H         1 <0>         0.1235
     45 H3         -0.3799    1.9964   -0.7106 H         1 <0>         0.1239
     46 H4         -0.3727    1.9606    1.0689 H         1 <0>         0.1228
     47 H5         -1.7506   -0.0114    1.0392 H         1 <0>         0.1378
     48 H6         -1.7633    0.0464   -0.7398 H         1 <0>         0.1366
     49 H7         -2.2665   -2.2400    0.0951 H         1 <0>         0.1250
     50 H8         -0.7438   -2.2074   -0.8270 H         1 <0>         0.0618
     51 H9          1.3649   -2.2741    2.1749 H         1 <0>         0.1364
     52 H10         1.3904   -2.2274    0.3953 H         1 <0>         0.0551
     53 H11         1.8626    0.0125    1.3370 H         1 <0>         0.1339
     54 H12         0.3210   -0.0308    2.2257 H         1 <0>         0.1383
     55 H13        -1.5683   -4.2150    1.1348 H         1 <0>         0.1192
     56 H14         0.0812   -4.2506    0.4667 H         1 <0>         0.0779
     57 H15         1.0078   -4.3534    5.0103 H         1 <0>         0.4512
     58 H16         1.7643   -9.5325    5.9788 H         1 <0>         0.1484
     59 H17         3.0086   -6.7429    8.9679 H         1 <0>         0.1527
     60 H18         2.2342   -4.8775    7.5655 H         1 <0>         0.1467
     61 H19         4.0383  -11.1635    9.7255 H         1 <0>         0.1416
     62 H20         6.1429  -12.2806    9.1102 H         1 <0>         0.1460
     63 H21         6.3800   -9.8844    5.5772 H         1 <0>         0.1307
     64 H22         4.2705   -8.7748    6.1893 H         1 <0>         0.1320
     65 H23         8.2917  -11.2901    6.5033 H         1 <0>         0.4111
     66 H24         9.7089  -13.1453    6.6820 H         1 <0>         0.4162
     67 H25         7.5640  -15.1594    8.6899 H         1 <0>         0.1789
     68 H26         9.5774  -18.8217    7.8426 H         1 <0>         0.1506
     69 H27        11.0148  -17.6641    6.2145 H         1 <0>         0.1557
     70 H28         0.6149   -0.1708   -0.6918 H         1 <0>         0.4216
@<TRIPOS>BOND
     1    1    2 1
     2    1   44 1
     3    1   45 1
     4    1   46 1
     5    2    7 1
     6    2    3 1
     7    2   70 1
     8    3    4 1
     9    3   47 1
    10    3   48 1
    11    4    5 1
    12    4   49 1
    13    4   50 1
    14    5    6 1
    15    5    8 1
    16    6    7 1
    17    6   51 1
    18    6   52 1
    19    7   53 1
    20    7   54 1
    21    8    9 1
    22    8   55 1
    23    8   56 1
    24    9   10 2
    25    9   11 1
    26   11   12 2
    27   12   21 1
    28   12   13 1
    29   13   15 1
    30   13   14 1
    31   15   16 ar
    32   15   20 ar
    33   16   17 ar
    34   16   58 1
    35   17   18 ar
    36   17   22 1
    37   18   19 ar
    38   18   59 1
    39   19   20 ar
    40   19   60 1
    41   20   21 1
    42   21   57 1
    43   22   23 1
    44   23   28 ar
    45   23   24 ar
    46   24   25 ar
    47   24   61 1
    48   25   26 ar
    49   25   62 1
    50   26   27 ar
    51   26   29 1
    52   27   28 ar
    53   27   63 1
    54   28   64 1
    55   29   30 am
    56   29   65 1
    57   30   31 2
    58   30   32 am
    59   32   33 1
    60   32   66 1
    61   33   38 ar
    62   33   34 ar
    63   34   35 ar
    64   34   67 1
    65   35   36 ar
    66   35   40 1
    67   36   37 ar
    68   36   68 1
    69   37   38 ar
    70   37   69 1
    71   38   39 1
    72   40   41 1
    73   40   42 1
    74   40   43 1
@<TRIPOS>MOLECULE
CHEMBL1086731
   63    67     0     0     0
SMALL
USER_CHARGES

@<TRIPOS>ATOM
      1 C1         -3.2983    0.6241    0.9750 C.3       1 <0>        -0.1090
      2 C2         -3.0130   -0.8369    1.2101 C.ar      1 <0>        -0.1416
      3 C3         -3.7319   -1.7990    0.5269 C.ar      1 <0>        -0.0720
      4 C4         -3.4739   -3.1393    0.7398 C.ar      1 <0>        -0.1404
      5 C5         -2.4898   -3.5242    1.6424 C.ar      1 <0>         0.1731
      6 C6         -1.7658   -2.5608    2.3297 C.ar      1 <0>        -0.1794
      7 C7         -2.0236   -1.2149    2.1093 C.ar      1 <0>         0.1898
      8 N1         -1.2928   -0.2408    2.7959 N.pl3     1 <0>        -0.6333
      9 C8         -0.1890   -0.6034    3.5403 C.2       1 <0>         0.5491
     10 N2          0.3308   -1.8043    3.5795 N.2       1 <0>        -0.5092
     11 C9          1.4072   -1.8109    4.4096 C.ar      1 <0>         0.0765
     12 C10         2.3068   -2.8039    4.8052 C.ar      1 <0>        -0.0779
     13 C11         3.3223   -2.4965    5.6830 C.ar      1 <0>        -0.1119
     14 C12         3.4588   -1.2082    6.1781 C.ar      1 <0>        -0.1104
     15 C13         2.5783   -0.2163    5.7970 C.ar      1 <0>        -0.0862
     16 C14         1.5506   -0.5079    4.9138 C.ar      1 <0>         0.0571
     17 N3          0.5304    0.2405    4.3441 N.pl3     1 <0>        -0.4575
     18 C15         0.2826    1.5959    4.5530 C.ar      1 <0>         0.4251
     19 C16         0.0359    2.4413    3.4776 C.ar      1 <0>        -0.3104
     20 C17        -0.2061    3.7875    3.7388 C.ar      1 <0>         0.4661
     21 N4         -0.1925    4.2132    5.0002 N.ar      1 <0>        -0.5769
     22 C18         0.0456    3.3794    5.9920 C.ar      1 <0>         0.3744
     23 N5          0.2734    2.0983    5.7852 N.ar      1 <0>        -0.5627
     24 N6         -0.4569    4.6714    2.7009 N.pl3     1 <0>        -0.8262
     25 N7         -2.2299   -4.8812    1.8580 N.am      1 <0>        -0.6592
     26 C19        -2.3689   -5.7627    0.8480 C.2       1 <0>         0.6073
     27 O1         -2.6266   -5.3672   -0.2738 O.2       1 <0>        -0.5147
     28 C20        -2.2098   -7.1975    1.1006 C.2       1 <0>        -0.2773
     29 C21        -1.9252   -7.8492    2.2912 C.2       1 <0>        -0.0845
     30 C22        -1.8363   -9.2185    2.2156 C.2       1 <0>        -0.1882
     31 C23        -2.0266   -9.8263    1.0185 C.2       1 <0>        -0.1853
     32 S1         -2.3393   -8.5606   -0.0410 S.3       1 <0>         0.2800
     33 C24        -1.9753  -11.3005    0.7101 C.3       1 <0>         0.0130
     34 C25        -3.0326  -12.0321    1.5395 C.3       1 <0>        -0.1379
     35 C26        -2.2528  -11.5202   -0.7784 C.3       1 <0>        -0.1557
     36 C27        -0.5883  -11.8459    1.0562 C.3       1 <0>        -0.1379
     37 H1         -2.6731    0.9898    0.1605 H         1 <0>         0.0713
     38 H2         -4.3484    0.7516    0.7124 H         1 <0>         0.0751
     39 H3         -3.0796    1.1875    1.8821 H         1 <0>         0.0510
     40 H4         -4.4975   -1.5026   -0.1748 H         1 <0>         0.1315
     41 H5         -4.0378   -3.8889    0.2045 H         1 <0>         0.1363
     42 H6         -1.0008   -2.8573    3.0320 H         1 <0>         0.1832
     43 H7         -1.5617    0.6900    2.7491 H         1 <0>         0.4184
     44 H8          2.2060   -3.8093    4.4241 H         1 <0>         0.1324
     45 H9          4.0175   -3.2645    5.9885 H         1 <0>         0.1327
     46 H10         4.2589   -0.9798    6.8665 H         1 <0>         0.1326
     47 H11         2.6895    0.7850    6.1862 H         1 <0>         0.1242
     48 H12         0.0323    2.0639    2.4657 H         1 <0>         0.1458
     49 H13         0.0497    3.7560    7.0042 H         1 <0>         0.2100
     50 H14        -0.4648    4.3536    1.7845 H         1 <0>         0.4155
     51 H15        -0.6246    5.6077    2.8910 H         1 <0>         0.4147
     52 H16        -1.9496   -5.1881    2.7345 H         1 <0>         0.4122
     53 H17        -1.7822   -7.3147    3.2186 H         1 <0>         0.1422
     54 H18        -1.6175   -9.8024    3.0974 H         1 <0>         0.1349
     55 H19        -4.0207  -11.6436    1.2929 H         1 <0>         0.0594
     56 H20        -2.9954  -13.0984    1.3164 H         1 <0>         0.0665
     57 H21        -2.8348  -11.8757    2.5999 H         1 <0>         0.0601
     58 H22        -1.4996  -10.9990   -1.3692 H         1 <0>         0.0631
     59 H23        -2.2157  -12.5865   -1.0014 H         1 <0>         0.0719
     60 H24        -3.2409  -11.1316   -1.0249 H         1 <0>         0.0629
     61 H25        -0.3906  -11.6894    2.1167 H         1 <0>         0.0602
     62 H26        -0.5512  -12.9122    0.8332 H         1 <0>         0.0665
     63 H27         0.1649  -11.3247    0.4654 H         1 <0>         0.0597
@<TRIPOS>BOND
     1    1    2 1
     2    1   37 1
     3    1   38 1
     4    1   39 1
     5    2    7 ar
     6    2    3 ar
     7    3    4 ar
     8    3   40 1
     9    4    5 ar
    10    4   41 1
    11    5    6 ar
    12    5   25 1
    13    6    7 ar
    14    6   42 1
    15    7    8 1
    16    8    9 1
    17    8   43 1
    18    9   17 1
    19    9   10 2
    20   10   11 1
    21   11   16 ar
    22   11   12 ar
    23   12   13 ar
    24   12   44 1
    25   13   14 ar
    26   13   45 1
    27   14   15 ar
    28   14   46 1
    29   15   16 ar
    30   15   47 1
    31   16   17 1
    32   17   18 1
    33   18   23 ar
    34   18   19 ar
    35   19   20 ar
    36   19   48 1
    37   20   21 ar
    38   20   24 1
    39   21   22 ar
    40   22   23 ar
    41   22   49 1
    42   24   50 1
    43   24   51 1
    44   25   26 am
    45   25   52 1
    46   26   27 2
    47   26   28 1
    48   28   32 1
    49   28   29 2
    50   29   30 1
    51   29   53 1
    52   30   31 2
    53   30   54 1
    54   31   32 1
    55   31   33 1
    56   33   34 1
    57   33   35 1
    58   33   36 1
    59   34   55 1
    60   34   56 1
    61   34   57 1
    62   35   58 1
    63   35   59 1
    64   35   60 1
    65   36   61 1
    66   36   62 1
    67   36   63 1
@<TRIPOS>MOLECULE
CHEMBL1086731__1
   64    68     0     0     0
SMALL
USER_CHARGES

@<TRIPOS>ATOM
      1 C1          3.3029   -0.0681    0.3141 C.3       1 <0>        -0.1214
      2 C2          1.9116   -0.5427   -0.0178 C.ar      1 <0>        -0.0815
      3 C3          1.6193   -0.9848   -1.2939 C.ar      1 <0>        -0.0733
      4 C4          0.3452   -1.4202   -1.6024 C.ar      1 <0>        -0.0939
      5 C5         -0.6472   -1.4149   -0.6295 C.ar      1 <0>         0.1798
      6 C6         -0.3570   -0.9721    0.6529 C.ar      1 <0>        -0.1535
      7 C7          0.9256   -0.5406    0.9611 C.ar      1 <0>         0.1002
      8 N1          1.2236   -0.0985    2.2535 N.pl3     1 <0>        -0.6264
      9 C8          0.9882   -0.9215    3.3356 C.cat     1 <0>         0.6512
     10 N2          1.0048   -2.2302    3.3035 N.pl3     1 <0>        -0.5094
     11 C9          0.7328   -2.7225    4.5410 C.ar      1 <0>         0.0581
     12 C10         0.6275   -4.0169    5.0561 C.ar      1 <0>        -0.0780
     13 C11         0.3322   -4.2009    6.3884 C.ar      1 <0>        -0.0766
     14 C12         0.1379   -3.1107    7.2234 C.ar      1 <0>        -0.0741
     15 C13         0.2385   -1.8260    6.7298 C.ar      1 <0>        -0.0656
     16 C14         0.5355   -1.6223    5.3913 C.ar      1 <0>         0.0902
     17 N3          0.7079   -0.4917    4.6055 N.pl3     1 <0>        -0.4035
     18 C15         0.6111    0.8327    5.0284 C.ar      1 <0>         0.4133
     19 C16         0.4466    1.8576    4.1041 C.ar      1 <0>        -0.3217
     20 C17         0.3552    3.1641    4.5771 C.ar      1 <0>         0.4808
     21 N4          0.4282    3.3827    5.8884 N.ar      1 <0>        -0.5645
     22 C18         0.5845    2.3832    6.7322 C.ar      1 <0>         0.3971
     23 N5          0.6695    1.1336    6.3234 N.ar      1 <0>        -0.5644
     24 N6          0.1911    4.2214    3.6959 N.pl3     1 <0>        -0.8152
     25 N7         -1.9370   -1.8550   -0.9429 N.am      1 <0>        -0.6703
     26 C19        -2.1131   -2.8284   -1.8583 C.2       1 <0>         0.6146
     27 O1         -1.1540   -3.4478   -2.2801 O.2       1 <0>        -0.5075
     28 C20        -3.4592   -3.1411   -2.3457 C.2       1 <0>        -0.3020
     29 C21        -4.6701   -2.5582   -2.0035 C.2       1 <0>        -0.0745
     30 C22        -5.7784   -3.0697   -2.6350 C.2       1 <0>        -0.1947
     31 C23        -5.6220   -4.0806   -3.5251 C.2       1 <0>        -0.1703
     32 S1         -3.9662   -4.3646   -3.5391 S.3       1 <0>         0.2964
     33 C24        -6.6888   -4.7845   -4.3235 C.3       1 <0>         0.0097
     34 C25        -7.4128   -3.7710   -5.2121 C.3       1 <0>        -0.1391
     35 C26        -6.0439   -5.8611   -5.1987 C.3       1 <0>        -0.1574
     36 C27        -7.6928   -5.4359   -3.3704 C.3       1 <0>        -0.1386
     37 H1          3.9011   -0.9107    0.6609 H         1 <0>         0.0811
     38 H2          3.7622    0.3616   -0.5761 H         1 <0>         0.0859
     39 H3          3.2516    0.6879    1.0976 H         1 <0>         0.0613
     40 H4          2.3886   -0.9896   -2.0519 H         1 <0>         0.1482
     41 H5          0.1199   -1.7648   -2.6008 H         1 <0>         0.1501
     42 H6         -1.1266   -0.9666    1.4106 H         1 <0>         0.1327
     43 H7          1.5958    0.7869    2.3894 H         1 <0>         0.4430
     44 H8          0.7769   -4.8704    4.4114 H         1 <0>         0.1534
     45 H9          0.2509   -5.2018    6.7861 H         1 <0>         0.1571
     46 H10        -0.0939   -3.2682    8.2664 H         1 <0>         0.1572
     47 H11         0.0858   -0.9810    7.3849 H         1 <0>         0.1619
     48 H12         0.3915    1.6462    3.0464 H         1 <0>         0.1517
     49 H13         0.6401    2.5937    7.7900 H         1 <0>         0.2221
     50 H14         0.1392    4.0540    2.7419 H         1 <0>         0.4184
     51 H15         0.1283    5.1287    4.0332 H         1 <0>         0.4222
     52 H16        -2.7050   -1.4596   -0.5015 H         1 <0>         0.4159
     53 H17        -4.7380   -1.7538   -1.2861 H         1 <0>         0.1398
     54 H18        -6.7604   -2.6722   -2.4249 H         1 <0>         0.1381
     55 H19        -6.6975   -3.3069   -5.8912 H         1 <0>         0.0602
     56 H20        -8.1844   -4.2801   -5.7896 H         1 <0>         0.0703
     57 H21        -7.8722   -3.0040   -4.5886 H         1 <0>         0.0606
     58 H22        -5.5281   -6.5831   -4.5657 H         1 <0>         0.0632
     59 H23        -6.8155   -6.3701   -5.7762 H         1 <0>         0.0758
     60 H24        -5.3286   -5.3969   -5.8778 H         1 <0>         0.0635
     61 H25        -8.1522   -4.6690   -2.7469 H         1 <0>         0.0605
     62 H26        -8.4644   -5.9450   -3.9479 H         1 <0>         0.0703
     63 H27        -7.1770   -6.1580   -2.7373 H         1 <0>         0.0597
     64 H28         1.1836   -2.7672    2.5158 H         1 <0>         0.4617
@<TRIPOS>BOND
     1    1    2 1
     2    1   37 1
     3    1   38 1
     4    1   39 1
     5    2    7 ar
     6    2    3 ar
     7    3    4 ar
     8    3   40 1
     9    4    5 ar
    10    4   41 1
    11    5    6 ar
    12    5   25 1
    13    6    7 ar
    14    6   42 1
    15    7    8 1
    16    8    9 1
    17    8   43 1
    18    9   17 1
    19    9   10 2
    20   10   11 1
    21   10   64 1
    22   11   16 ar
    23   11   12 ar
    24   12   13 ar
    25   12   44 1
    26   13   14 ar
    27   13   45 1
    28   14   15 ar
    29   14   46 1
    30   15   16 ar
    31   15   47 1
    32   16   17 1
    33   17   18 1
    34   18   23 ar
    35   18   19 ar
    36   19   20 ar
    37   19   48 1
    38   20   21 ar
    39   20   24 1
    40   21   22 ar
    41   22   23 ar
    42   22   49 1
    43   24   50 1
    44   24   51 1
    45   25   26 am
    46   25   52 1
    47   26   27 2
    48   26   28 1
    49   28   32 1
    50   28   29 2
    51   29   30 1
    52   29   53 1
    53   30   31 2
    54   30   54 1
    55   31   32 1
    56   31   33 1
    57   33   34 1
    58   33   35 1
    59   33   36 1
    60   34   55 1
    61   34   56 1
    62   34   57 1
    63   35   58 1
    64   35   59 1
    65   35   60 1
    66   36   61 1
    67   36   62 1
    68   36   63 1
@<TRIPOS>MOLECULE
CHEMBL206145
   61    65     0     0     0
SMALL
USER_CHARGES

@<TRIPOS>ATOM
      1 C1          2.3742    0.3628    2.1722 C.3       1 <0>        -0.0982
      2 C2          1.6796   -0.8000    1.5117 C.2       1 <0>         0.0913
      3 C3          2.2981   -1.8653    0.9789 C.2       1 <0>        -0.1895
      4 C4          1.2544   -2.7468    0.4494 C.ar      1 <0>        -0.1344
      5 C5          0.0310   -2.1083    0.7202 C.ar      1 <0>         0.1353
      6 N1          0.3242   -0.9291    1.3716 N.pl3     1 <0>        -0.5851
      7 H1         -0.3321   -0.2860    1.6825 H         1 <0>         0.4220
      8 C6         -1.1592   -2.7133    0.3303 C.ar      1 <0>        -0.1205
      9 C7         -1.1350   -3.9295   -0.3159 C.ar      1 <0>        -0.0632
     10 C8          0.0734   -4.5651   -0.5861 C.ar      1 <0>         0.0147
     11 C9          1.2681   -3.9803   -0.2072 C.ar      1 <0>         0.1627
     12 F1          2.4407   -4.5976   -0.4701 F         1 <0>        -0.1259
     13 O1          0.0794   -5.7660   -1.2251 O.3       1 <0>        -0.2095
     14 C10         0.2039   -6.8849   -0.4739 C.2       1 <0>         0.4666
     15 C11         0.3364   -8.1476   -1.0907 C.2       1 <0>        -0.0619
     16 C12         0.3743   -8.5699   -2.4066 C.2       1 <0>        -0.0782
     17 C13         0.5237   -9.9598   -2.3850 C.2       1 <0>         0.0546
     18 C14         0.5735  -10.3552   -1.0817 C.2       1 <0>        -0.0113
     19 N2          0.4610   -9.2653   -0.2870 N.pl3     1 <0>        -0.2281
     20 N3          0.4504   -9.0890    1.1038 N.2       1 <0>        -0.3330
     21 C15         0.3251   -7.8922    1.6085 C.2       1 <0>         0.3307
     22 N4          0.2082   -6.8072    0.8448 N.2       1 <0>        -0.5959
     23 O2          0.6046  -10.7741   -3.4731 O.3       1 <0>        -0.2880
     24 C16         0.7563  -12.1734   -3.2264 C.3       1 <0>         0.0562
     25 C17         0.8286  -12.9214   -4.5591 C.3       1 <0>        -0.1160
     26 C18         0.9911  -14.4196   -4.2950 C.3       1 <0>        -0.0970
     27 C19         2.3426  -14.6774   -3.6226 C.3       1 <0>        -0.1500
     28 C20         2.5330  -16.1839   -3.4336 C.3       1 <0>        -0.0068
     29 N5          2.4991  -16.8527   -4.7397 N.4       1 <0>        -0.3851
     30 C21         1.1808  -16.6700   -5.3588 C.3       1 <0>        -0.0067
     31 C22         0.9384  -15.1822   -5.6219 C.3       1 <0>        -0.1422
     32 C23         2.7597  -18.2873   -4.5606 C.3       1 <0>        -0.0474
     33 C24         0.2733   -7.6979   -3.6315 C.3       1 <0>        -0.0839
     34 H2          2.4940    0.1578    3.2361 H         1 <0>         0.0829
     35 H3          3.3542    0.5067    1.7173 H         1 <0>         0.0897
     36 H4          1.7768    1.2650    2.0411 H         1 <0>         0.0732
     37 H5          3.3635   -2.0396    0.9465 H         1 <0>         0.1530
     38 H6         -2.1029   -2.2294    0.5346 H         1 <0>         0.1394
     39 H7         -2.0625   -4.3946   -0.6155 H         1 <0>         0.1450
     40 H8          0.6845  -11.3732   -0.7386 H         1 <0>         0.1787
     41 H9          0.3188   -7.7772    2.6824 H         1 <0>         0.2265
     42 H10         1.6733  -12.3456   -2.6629 H         1 <0>         0.0599
     43 H11        -0.0964  -12.5357   -2.6522 H         1 <0>         0.0624
     44 H12        -0.0884  -12.7491   -5.1226 H         1 <0>         0.0877
     45 H13         1.6813  -12.5591   -5.1333 H         1 <0>         0.0828
     46 H14         0.1873  -14.7643   -3.6443 H         1 <0>         0.0932
     47 H15         3.1424  -14.2855   -4.2509 H         1 <0>         0.0926
     48 H16         2.3663  -14.1829   -2.6515 H         1 <0>         0.1131
     49 H17         3.4942  -16.3710   -2.9549 H         1 <0>         0.1312
     50 H18         1.7329  -16.5747   -2.8049 H         1 <0>         0.1286
     51 H19         1.1438  -17.2160   -6.3015 H         1 <0>         0.1318
     52 H20         0.4095  -17.0505   -4.6891 H         1 <0>         0.1286
     53 H21        -0.0416  -15.0486   -6.0799 H         1 <0>         0.1151
     54 H22         1.7091  -14.8008   -6.2918 H         1 <0>         0.0914
     55 H23         1.9964  -18.7170   -3.9118 H         1 <0>         0.1213
     56 H24         2.7348  -18.7849   -5.5300 H         1 <0>         0.1240
     57 H25         3.7413  -18.4243   -4.1069 H         1 <0>         0.1237
     58 H26         1.2706   -7.3775   -3.9328 H         1 <0>         0.0738
     59 H27        -0.1874   -8.2622   -4.4423 H         1 <0>         0.0744
     60 H28        -0.3365   -6.8231   -3.4055 H         1 <0>         0.0745
     61 H29         3.2083  -16.4562   -5.3379 H         1 <0>         0.4249
@<TRIPOS>BOND
     1    1    2 1
     2    1   34 1
     3    1   35 1
     4    1   36 1
     5    2    6 1
     6    2    3 2
     7    3    4 1
     8    3   37 1
     9    4   11 ar
    10    4    5 ar
    11    5    6 1
    12    5    8 ar
    13    6    7 1
    14    8    9 ar
    15    8   38 1
    16    9   10 ar
    17    9   39 1
    18   10   11 ar
    19   10   13 1
    20   11   12 1
    21   13   14 1
    22   14   22 2
    23   14   15 1
    24   15   19 1
    25   15   16 2
    26   16   17 1
    27   16   33 1
    28   17   18 2
    29   17   23 1
    30   18   19 1
    31   18   40 1
    32   19   20 1
    33   20   21 2
    34   21   22 1
    35   21   41 1
    36   23   24 1
    37   24   25 1
    38   24   42 1
    39   24   43 1
    40   25   26 1
    41   25   44 1
    42   25   45 1
    43   26   31 1
    44   26   27 1
    45   26   46 1
    46   27   28 1
    47   27   47 1
    48   27   48 1
    49   28   29 1
    50   28   49 1
    51   28   50 1
    52   29   30 1
    53   29   32 1
    54   29   61 1
    55   30   31 1
    56   30   51 1
    57   30   52 1
    58   31   53 1
    59   31   54 1
    60   32   55 1
    61   32   56 1
    62   32   57 1
    63   33   58 1
    64   33   59 1
    65   33   60 1
@<TRIPOS>MOLECULE
CHEMBL178174
   59    62     0     0     0
SMALL
USER_CHARGES

@<TRIPOS>ATOM
      1 C1          0.2892    1.4902   -0.0006 C.3       1 <0>        -0.1078
      2 C2          0.1646   -0.0116   -0.0026 C.ar      1 <0>        -0.1271
      3 C3         -0.2109   -0.6714   -1.1576 C.ar      1 <0>        -0.0861
      4 C4         -0.3263   -2.0477   -1.1635 C.ar      1 <0>        -0.1554
      5 C5         -0.0643   -2.7727   -0.0072 C.ar      1 <0>         0.1515
      6 C6          0.3134   -2.1117    1.1533 C.ar      1 <0>        -0.1764
      7 C7          0.4327   -0.7307    1.1536 C.ar      1 <0>         0.1231
      8 O1          0.8068   -0.0808    2.2870 O.3       1 <0>        -0.4934
      9 N1         -0.1813   -4.1654   -0.0128 N.pl3     1 <0>        -0.6170
     10 C8         -0.2438   -4.8487   -1.2123 C.2       1 <0>         0.5253
     11 C9         -0.2262   -6.2621   -1.2322 C.2       1 <0>        -0.0866
     12 C10        -0.1551   -7.2302   -0.2491 C.2       1 <0>        -0.1020
     13 C11        -0.1779   -8.4712   -0.8956 C.2       1 <0>         0.0984
     14 C12        -0.2610   -8.2415   -2.2376 C.2       1 <0>         0.0588
     15 N2         -0.2910   -6.9057   -2.4533 N.pl3     1 <0>        -0.2313
     16 N3         -0.3699   -6.1237   -3.6142 N.2       1 <0>        -0.3385
     17 C13        -0.3809   -4.8219   -3.5255 C.2       1 <0>         0.3216
     18 N4         -0.3262   -4.1881   -2.3556 N.2       1 <0>        -0.6031
     19 N5         -0.1242   -9.7308   -0.2726 N.am      1 <0>        -0.6170
     20 C14        -0.1544  -10.8532   -1.0182 C.2       1 <0>         0.6520
     21 O2         -0.2281  -10.7767   -2.2288 O.2       1 <0>        -0.5520
     22 O3         -0.1030  -12.0594   -0.4217 O.3       1 <0>        -0.3567
     23 C15        -0.1393  -13.2064   -1.2732 C.3       1 <0>         0.0907
     24 C16        -0.0717  -14.4759   -0.4220 C.3       1 <0>        -0.1383
     25 C17        -0.1106  -15.7040   -1.3337 C.3       1 <0>         0.1456
     26 N6         -0.0459  -16.9196   -0.5186 N.pl3     1 <0>        -0.1589
     27 N7          1.0429  -17.5090   -0.1710 N.2       1 <0>        -0.2885
     28 C18         0.7394  -18.5631    0.5520 C.2       1 <0>        -0.0248
     29 C19        -0.6551  -18.5853    0.6296 C.2       1 <0>        -0.0248
     30 N8         -1.0700  -17.5394   -0.0487 N.2       1 <0>        -0.2886
     31 C20        -0.0687   -6.9946    1.2369 C.3       1 <0>        -0.0264
     32 C21        -1.2656   -7.6510    1.9279 C.3       1 <0>        -0.1484
     33 C22         1.2278   -7.6033    1.7752 C.3       1 <0>        -0.1478
     34 H1          1.3049    1.7709   -0.2793 H         1 <0>         0.0708
     35 H2         -0.4144    1.9141   -0.7171 H         1 <0>         0.0659
     36 H3          0.0672    1.8719    0.9960 H         1 <0>         0.0658
     37 H4         -0.4150   -0.1096   -2.0572 H         1 <0>         0.1309
     38 H5         -0.6206   -2.5608   -2.0672 H         1 <0>         0.1971
     39 H6          0.5177   -2.6726    2.0534 H         1 <0>         0.1293
     40 H7          0.0678    0.1770    2.8548 H         1 <0>         0.3893
     41 H8         -0.2188   -4.6523    0.8253 H         1 <0>         0.4215
     42 H9         -0.2974   -9.0020   -3.0036 H         1 <0>         0.2079
     43 H10        -0.4422   -4.2382   -4.4321 H         1 <0>         0.2237
     44 H11        -0.0654   -9.7919    0.6936 H         1 <0>         0.4205
     45 H12        -1.0655  -13.2031   -1.8479 H         1 <0>         0.0798
     46 H13         0.7111  -13.1801   -1.9546 H         1 <0>         0.0798
     47 H14         0.8545  -14.4792    0.1527 H         1 <0>         0.0885
     48 H15        -0.9221  -14.5022    0.2594 H         1 <0>         0.0884
     49 H16        -1.0368  -15.7007   -1.9084 H         1 <0>         0.1144
     50 H17         0.7398  -15.6777   -2.0151 H         1 <0>         0.1143
     51 H18         1.4270  -19.2682    0.9951 H         1 <0>         0.1992
     52 H19        -1.2666  -19.3108    1.1454 H         1 <0>         0.1992
     53 H20        -0.0770   -5.9230    1.4360 H         1 <0>         0.0686
     54 H21        -1.2573   -8.7226    1.7288 H         1 <0>         0.0568
     55 H22        -1.2030   -7.4806    3.0026 H         1 <0>         0.0687
     56 H23        -2.1892   -7.2174    1.5444 H         1 <0>         0.0621
     57 H24         2.0805   -7.1356    1.2829 H         1 <0>         0.0621
     58 H25         1.2903   -7.4329    2.8499 H         1 <0>         0.0685
     59 H26         1.2361   -8.6749    1.5761 H         1 <0>         0.0567
@<TRIPOS>BOND
     1    1    2 1
     2    1   34 1
     3    1   35 1
     4    1   36 1
     5    2    7 ar
     6    2    3 ar
     7    3    4 ar
     8    3   37 1
     9    4    5 ar
    10    4   38 1
    11    5    6 ar
    12    5    9 1
    13    6    7 ar
    14    6   39 1
    15    7    8 1
    16    8   40 1
    17    9   10 1
    18    9   41 1
    19   10   18 2
    20   10   11 1
    21   11   15 1
    22   11   12 2
    23   12   13 1
    24   12   31 1
    25   13   14 2
    26   13   19 1
    27   14   15 1
    28   14   42 1
    29   15   16 1
    30   16   17 2
    31   17   18 1
    32   17   43 1
    33   19   20 am
    34   19   44 1
    35   20   21 2
    36   20   22 1
    37   22   23 1
    38   23   24 1
    39   23   45 1
    40   23   46 1
    41   24   25 1
    42   24   47 1
    43   24   48 1
    44   25   26 1
    45   25   49 1
    46   25   50 1
    47   26   30 1
    48   26   27 1
    49   27   28 2
    50   28   29 1
    51   28   51 1
    52   29   30 2
    53   29   52 1
    54   31   32 1
    55   31   33 1
    56   31   53 1
    57   32   54 1
    58   32   55 1
    59   32   56 1
    60   33   57 1
    61   33   58 1
    62   33   59 1
@<TRIPOS>MOLECULE
CHEMBL380957
   56    60     0     0     0
SMALL
USER_CHARGES

@<TRIPOS>ATOM
      1 C1          2.3742    0.3628    2.1722 C.3       1 <0>        -0.0993
      2 C2          1.6796   -0.8000    1.5117 C.2       1 <0>         0.0938
      3 C3          2.2981   -1.8653    0.9789 C.2       1 <0>        -0.1903
      4 C4          1.2544   -2.7468    0.4494 C.ar      1 <0>        -0.1342
      5 C5          0.0310   -2.1083    0.7202 C.ar      1 <0>         0.1364
      6 N1          0.3242   -0.9291    1.3716 N.pl3     1 <0>        -0.5843
      7 H1         -0.3321   -0.2860    1.6825 H         1 <0>         0.4228
      8 C6         -1.1592   -2.7133    0.3303 C.ar      1 <0>        -0.1188
      9 C7         -1.1350   -3.9295   -0.3159 C.ar      1 <0>        -0.0639
     10 C8          0.0734   -4.5651   -0.5861 C.ar      1 <0>         0.0116
     11 C9          1.2681   -3.9803   -0.2072 C.ar      1 <0>         0.1632
     12 F1          2.4407   -4.5976   -0.4701 F         1 <0>        -0.1268
     13 O1          0.0794   -5.7660   -1.2251 O.3       1 <0>        -0.2093
     14 C10         0.2039   -6.8849   -0.4739 C.2       1 <0>         0.4654
     15 C11         0.3364   -8.1476   -1.0907 C.2       1 <0>        -0.0584
     16 C12         0.3743   -8.5699   -2.4066 C.2       1 <0>        -0.0744
     17 C13         0.5237   -9.9598   -2.3850 C.2       1 <0>         0.0391
     18 C14         0.5735  -10.3552   -1.0817 C.2       1 <0>        -0.0028
     19 N2          0.4610   -9.2653   -0.2870 N.pl3     1 <0>        -0.2243
     20 N3          0.4504   -9.0890    1.1038 N.2       1 <0>        -0.3305
     21 C15         0.3251   -7.8922    1.6085 C.2       1 <0>         0.3369
     22 N4          0.2082   -6.8072    0.8448 N.2       1 <0>        -0.5909
     23 O2          0.6046  -10.7741   -3.4731 O.3       1 <0>        -0.2997
     24 C16         0.7563  -12.1734   -3.2264 C.3       1 <0>         0.0272
     25 C17         0.8286  -12.9214   -4.5591 C.3       1 <0>         0.0062
     26 N5          2.0436  -12.5200   -5.2807 N.4       1 <0>        -0.3950
     27 C18         1.9234  -11.1196   -5.7619 C.3       1 <0>         0.0045
     28 C19         2.9358  -11.0191   -6.9230 C.3       1 <0>        -0.1867
     29 C20         3.1170  -12.4670   -7.4233 C.3       1 <0>         0.0889
     30 H2          4.1551  -12.7795   -7.3102 H         1 <0>         0.0952
     31 C21         2.1989  -13.3206   -6.5224 C.3       1 <0>        -0.0013
     32 O3          2.7135  -12.5740   -8.7900 O.3       1 <0>        -0.5505
     33 C22         0.2733   -7.6979   -3.6315 C.3       1 <0>        -0.0856
     34 H3          2.4940    0.1578    3.2361 H         1 <0>         0.0839
     35 H4          3.3542    0.5067    1.7173 H         1 <0>         0.0903
     36 H5          1.7768    1.2650    2.0411 H         1 <0>         0.0739
     37 H6          3.3635   -2.0396    0.9465 H         1 <0>         0.1535
     38 H7         -2.1029   -2.2294    0.5346 H         1 <0>         0.1403
     39 H8         -2.0625   -4.3946   -0.6155 H         1 <0>         0.1450
     40 H9          0.6845  -11.3732   -0.7386 H         1 <0>         0.1823
     41 H10         0.3188   -7.7772    2.6824 H         1 <0>         0.2298
     42 H11         1.6733  -12.3456   -2.6629 H         1 <0>         0.0852
     43 H12        -0.0964  -12.5357   -2.6522 H         1 <0>         0.1099
     44 H13         0.8549  -13.9949   -4.3723 H         1 <0>         0.1514
     45 H14        -0.0478  -12.6785   -5.1600 H         1 <0>         0.1425
     46 H15         0.9125  -10.9266   -6.1211 H         1 <0>         0.1363
     47 H16         2.1854  -10.4208   -4.9675 H         1 <0>         0.1437
     48 H17         2.5373  -10.3904   -7.7194 H         1 <0>         0.1196
     49 H18         3.8849  -10.6208   -6.5643 H         1 <0>         0.1043
     50 H19         2.6683  -14.2790   -6.3006 H         1 <0>         0.1428
     51 H20         1.2311  -13.4719   -7.0006 H         1 <0>         0.1443
     52 H21         3.2281  -12.0239   -9.3963 H         1 <0>         0.4044
     53 H22         1.2706   -7.3775   -3.9328 H         1 <0>         0.0738
     54 H23        -0.1874   -8.2622   -4.4423 H         1 <0>         0.0727
     55 H24        -0.3365   -6.8231   -3.4055 H         1 <0>         0.0780
     56 H25         2.8551  -12.6236   -4.6902 H         1 <0>         0.4278
@<TRIPOS>BOND
     1    1    2 1
     2    1   34 1
     3    1   35 1
     4    1   36 1
     5    2    6 1
     6    2    3 2
     7    3    4 1
     8    3   37 1
     9    4   11 ar
    10    4    5 ar
    11    5    6 1
    12    5    8 ar
    13    6    7 1
    14    8    9 ar
    15    8   38 1
    16    9   10 ar
    17    9   39 1
    18   10   11 ar
    19   10   13 1
    20   11   12 1
    21   13   14 1
    22   14   22 2
    23   14   15 1
    24   15   19 1
    25   15   16 2
    26   16   17 1
    27   16   33 1
    28   17   18 2
    29   17   23 1
    30   18   19 1
    31   18   40 1
    32   19   20 1
    33   20   21 2
    34   21   22 1
    35   21   41 1
    36   23   24 1
    37   24   25 1
    38   24   42 1
    39   24   43 1
    40   25   26 1
    41   25   44 1
    42   25   45 1
    43   26   31 1
    44   26   27 1
    45   26   56 1
    46   27   28 1
    47   27   46 1
    48   27   47 1
    49   28   29 1
    50   28   48 1
    51   28   49 1
    52   29   30 1
    53   29   31 1
    54   29   32 1
    55   31   50 1
    56   31   51 1
    57   32   52 1
    58   33   53 1
    59   33   54 1
    60   33   55 1
@<TRIPOS>MOLECULE
CHEMBL189691
   87    90     0     0     0
SMALL
USER_CHARGES

@<TRIPOS>ATOM
      1 C1         -0.0187    1.5258    0.0104 C.3       1 <0>        -0.1650
      2 C2          0.0021   -0.0041    0.0020 C.3       1 <0>         0.1878
      3 C3          0.7421   -0.5109    1.2415 C.3       1 <0>        -0.1650
      4 C4         -1.4333   -0.5336    0.0129 C.3       1 <0>        -0.1571
      5 N1          0.6878   -0.4765   -1.2033 N.am      1 <0>        -0.7357
      6 C5          1.9715   -0.1323   -1.4270 C.2       1 <0>         0.6957
      7 O1          2.5604    0.5703   -0.6286 O.2       1 <0>        -0.5177
      8 N2          2.6023   -0.5669   -2.5359 N.am      1 <0>        -0.6657
      9 C6          3.9247   -0.2123   -2.7663 C.ar      1 <0>         0.4529
     10 C7          4.5693   -0.6712   -3.9356 C.ar      1 <0>        -0.1541
     11 C8          5.8881   -0.3212   -4.1717 C.ar      1 <0>         0.0273
     12 C9          6.5368    0.4880   -3.2221 C.ar      1 <0>        -0.2369
     13 C10         7.8708    0.8895   -3.3824 C.ar      1 <0>         0.2222
     14 N3          8.4455    1.6459   -2.4759 N.ar      1 <0>        -0.5409
     15 C11         7.8088    2.0618   -1.3834 C.ar      1 <0>         0.4051
     16 C12         6.4944    1.7182   -1.1375 C.ar      1 <0>        -0.2387
     17 C13         5.8226    0.9111   -2.0693 C.ar      1 <0>         0.2373
     18 N4          4.5491    0.5491   -1.8926 N.ar      1 <0>        -0.4828
     19 N5          8.4837    2.8609   -0.4679 N.pl3     1 <0>        -0.7265
     20 C14         7.7998    3.3283    0.7404 C.3       1 <0>         0.1268
     21 C15         8.7592    4.1828    1.5712 C.3       1 <0>        -0.1313
     22 C16         8.0449    4.6711    2.8331 C.3       1 <0>        -0.1144
     23 C17         9.0043    5.5256    3.6639 C.3       1 <0>        -0.1480
     24 C18         8.2901    6.0138    4.9258 C.3       1 <0>        -0.0096
     25 N6          9.2112    6.8342    5.7235 N.4       1 <0>        -0.3869
     26 C19        10.3211    5.9993    6.2016 C.3       1 <0>        -0.0065
     27 C20        11.2909    6.8576    7.0169 C.3       1 <0>         0.0246
     28 N7         10.5763    7.4518    8.1555 N.3       1 <0>        -0.5439
     29 C21         9.4468    8.2706    7.6931 C.3       1 <0>         0.0240
     30 C22         8.4923    7.4007    6.8723 C.3       1 <0>        -0.0022
     31 C23        11.4879    8.2391    8.9963 C.3       1 <0>         0.0193
     32 C24         3.8387   -1.5231   -4.9046 C.ar      1 <0>         0.0368
     33 C25         3.1397   -2.6438   -4.4607 C.ar      1 <0>        -0.1995
     34 C26         2.4582   -3.4378   -5.3688 C.ar      1 <0>         0.1781
     35 C27         2.4715   -3.1183   -6.7187 C.ar      1 <0>        -0.2960
     36 C28         3.1664   -2.0032   -7.1640 C.ar      1 <0>         0.1781
     37 C29         3.8449   -1.2016   -6.2604 C.ar      1 <0>        -0.1738
     38 O2          3.1769   -1.6937   -8.4872 O.3       1 <0>        -0.3100
     39 C30         2.4514   -2.5601   -9.3619 C.3       1 <0>         0.0245
     40 O3          1.7762   -4.5310   -4.9368 O.3       1 <0>        -0.3110
     41 C31         1.0960   -5.3046   -5.9272 C.3       1 <0>         0.0244
     42 H1          1.0039    1.9031    0.0027 H         1 <0>         0.0797
     43 H2         -0.5459    1.8868   -0.8726 H         1 <0>         0.0532
     44 H3         -0.5289    1.8773    0.9072 H         1 <0>         0.0631
     45 H4          0.2319   -0.1594    2.1383 H         1 <0>         0.0630
     46 H5          0.7568   -1.6008    1.2356 H         1 <0>         0.0536
     47 H6          1.7647   -0.1336    1.2338 H         1 <0>         0.0798
     48 H7         -1.9605   -0.1726   -0.8702 H         1 <0>         0.0630
     49 H8         -1.4185   -1.6235    0.0069 H         1 <0>         0.0635
     50 H9         -1.9435   -0.1821    0.9097 H         1 <0>         0.0766
     51 H10         0.2179   -1.0371   -1.8404 H         1 <0>         0.3957
     52 H11         2.1325   -1.1275   -3.1729 H         1 <0>         0.4165
     53 H12         6.4032   -0.6599   -5.0584 H         1 <0>         0.1526
     54 H13         8.4269    0.5757   -4.2534 H         1 <0>         0.1704
     55 H14         5.9925    2.0642   -0.2459 H         1 <0>         0.1393
     56 H15         9.4075    3.1089   -0.6290 H         1 <0>         0.4050
     57 H16         6.9323    3.9254    0.4590 H         1 <0>         0.0669
     58 H17         7.4748    2.4704    1.3290 H         1 <0>         0.0670
     59 H18         9.6266    3.5858    1.8527 H         1 <0>         0.0748
     60 H19         9.0841    5.0408    0.9827 H         1 <0>         0.0748
     61 H20         7.1775    5.2681    2.5517 H         1 <0>         0.0794
     62 H21         7.7200    3.8131    3.4217 H         1 <0>         0.0795
     63 H22         9.8718    4.9285    3.9454 H         1 <0>         0.0879
     64 H23         9.3293    6.3835    3.0754 H         1 <0>         0.0873
     65 H24         7.4226    6.6108    4.6444 H         1 <0>         0.1324
     66 H25         7.9651    5.1558    5.5144 H         1 <0>         0.1320
     67 H26         9.9294    5.1985    6.8287 H         1 <0>         0.1380
     68 H27        10.8458    5.5691    5.3485 H         1 <0>         0.1366
     69 H28        12.1068    6.2352    7.3843 H         1 <0>         0.1235
     70 H29        11.6932    7.6504    6.3863 H         1 <0>         0.0601
     71 H30         8.9173    8.6791    8.5539 H         1 <0>         0.1239
     72 H31         9.8188    9.0867    7.0737 H         1 <0>         0.0602
     73 H32         7.6610    8.0094    6.5164 H         1 <0>         0.1361
     74 H33         8.1099    6.5927    7.4960 H         1 <0>         0.1379
     75 H34        11.9281    9.0407    8.4032 H         1 <0>         0.0395
     76 H35        10.9334    8.6674    9.8313 H         1 <0>         0.0840
     77 H36        12.2786    7.5934    9.3784 H         1 <0>         0.0845
     78 H37         3.1296   -2.8935   -3.4101 H         1 <0>         0.1344
     79 H38         1.9400   -3.7392   -7.4246 H         1 <0>         0.1385
     80 H39         4.3820   -0.3311   -6.6071 H         1 <0>         0.1378
     81 H40         2.8585   -3.5690   -9.2938 H         1 <0>         0.0578
     82 H41         1.4007   -2.5720   -9.0723 H         1 <0>         0.0573
     83 H42         2.5417   -2.2003  -10.3868 H         1 <0>         0.1057
     84 H43         0.3590   -4.6805   -6.4327 H         1 <0>         0.0578
     85 H44         1.8166   -5.6777   -6.6549 H         1 <0>         0.0580
     86 H45         0.5935   -6.1456   -5.4494 H         1 <0>         0.1055
     87 H46         9.5753    7.5823    5.1527 H         1 <0>         0.4201
@<TRIPOS>BOND
     1    1    2 1
     2    1   42 1
     3    1   43 1
     4    1   44 1
     5    2    3 1
     6    2    4 1
     7    2    5 1
     8    3   45 1
     9    3   46 1
    10    3   47 1
    11    4   48 1
    12    4   49 1
    13    4   50 1
    14    5    6 am
    15    5   51 1
    16    6    7 2
    17    6    8 am
    18    8    9 1
    19    8   52 1
    20    9   18 ar
    21    9   10 ar
    22   10   11 ar
    23   10   32 1
    24   11   12 ar
    25   11   53 1
    26   12   17 ar
    27   12   13 ar
    28   13   14 ar
    29   13   54 1
    30   14   15 ar
    31   15   16 ar
    32   15   19 1
    33   16   17 ar
    34   16   55 1
    35   17   18 ar
    36   19   20 1
    37   19   56 1
    38   20   21 1
    39   20   57 1
    40   20   58 1
    41   21   22 1
    42   21   59 1
    43   21   60 1
    44   22   23 1
    45   22   61 1
    46   22   62 1
    47   23   24 1
    48   23   63 1
    49   23   64 1
    50   24   25 1
    51   24   65 1
    52   24   66 1
    53   25   30 1
    54   25   26 1
    55   25   87 1
    56   26   27 1
    57   26   67 1
    58   26   68 1
    59   27   28 1
    60   27   69 1
    61   27   70 1
    62   28   29 1
    63   28   31 1
    64   29   30 1
    65   29   71 1
    66   29   72 1
    67   30   73 1
    68   30   74 1
    69   31   75 1
    70   31   76 1
    71   31   77 1
    72   32   37 ar
    73   32   33 ar
    74   33   34 ar
    75   33   78 1
    76   34   35 ar
    77   34   40 1
    78   35   36 ar
    79   35   79 1
    80   36   37 ar
    81   36   38 1
    82   37   80 1
    83   38   39 1
    84   39   81 1
    85   39   82 1
    86   39   83 1
    87   40   41 1
    88   41   84 1
    89   41   85 1
    90   41   86 1
@<TRIPOS>MOLECULE
CHEMBL189691__1
   87    90     0     0     0
SMALL
USER_CHARGES

@<TRIPOS>ATOM
      1 C1         -0.0187    1.5258    0.0104 C.3       1 <0>        -0.1652
      2 C2          0.0021   -0.0041    0.0020 C.3       1 <0>         0.1879
      3 C3          0.7421   -0.5109    1.2415 C.3       1 <0>        -0.1650
      4 C4         -1.4333   -0.5336    0.0129 C.3       1 <0>        -0.1567
      5 N1          0.6878   -0.4765   -1.2033 N.am      1 <0>        -0.7361
      6 C5          1.9715   -0.1323   -1.4270 C.2       1 <0>         0.6950
      7 O1          2.5604    0.5703   -0.6286 O.2       1 <0>        -0.5165
      8 N2          2.6023   -0.5669   -2.5359 N.am      1 <0>        -0.6659
      9 C6          3.9247   -0.2123   -2.7663 C.ar      1 <0>         0.4518
     10 C7          4.5693   -0.6712   -3.9356 C.ar      1 <0>        -0.1565
     11 C8          5.8881   -0.3212   -4.1717 C.ar      1 <0>         0.0279
     12 C9          6.5368    0.4880   -3.2221 C.ar      1 <0>        -0.2382
     13 C10         7.8708    0.8895   -3.3824 C.ar      1 <0>         0.2212
     14 N3          8.4455    1.6459   -2.4759 N.ar      1 <0>        -0.5407
     15 C11         7.8088    2.0618   -1.3834 C.ar      1 <0>         0.4066
     16 C12         6.4944    1.7182   -1.1375 C.ar      1 <0>        -0.2397
     17 C13         5.8226    0.9111   -2.0693 C.ar      1 <0>         0.2377
     18 N4          4.5491    0.5491   -1.8926 N.ar      1 <0>        -0.4824
     19 N5          8.4837    2.8609   -0.4679 N.pl3     1 <0>        -0.7245
     20 C14         7.7998    3.3283    0.7404 C.3       1 <0>         0.1261
     21 C15         8.7592    4.1828    1.5712 C.3       1 <0>        -0.1288
     22 C16         8.0449    4.6711    2.8331 C.3       1 <0>        -0.1174
     23 C17         9.0043    5.5256    3.6639 C.3       1 <0>        -0.1164
     24 C18         8.2901    6.0138    4.9258 C.3       1 <0>         0.0533
     25 N6          9.2112    6.8342    5.7235 N.3       1 <0>        -0.5401
     26 C19        10.3198    6.0236    6.2471 C.3       1 <0>         0.0203
     27 C20        11.2857    6.9243    7.0200 C.3       1 <0>        -0.0027
     28 N7         10.5697    7.5769    8.1240 N.4       1 <0>        -0.3884
     29 C21         9.4811    8.4021    7.5840 C.3       1 <0>        -0.0024
     30 C22         8.5002    7.5137    6.8157 C.3       1 <0>         0.0245
     31 C23        11.5014    8.4274    8.8767 C.3       1 <0>        -0.0458
     32 C24         3.8387   -1.5231   -4.9046 C.ar      1 <0>         0.0385
     33 C25         3.1397   -2.6438   -4.4607 C.ar      1 <0>        -0.1995
     34 C26         2.4582   -3.4378   -5.3688 C.ar      1 <0>         0.1776
     35 C27         2.4715   -3.1183   -6.7187 C.ar      1 <0>        -0.2966
     36 C28         3.1664   -2.0032   -7.1640 C.ar      1 <0>         0.1777
     37 C29         3.8449   -1.2016   -6.2604 C.ar      1 <0>        -0.1739
     38 O2          3.1769   -1.6937   -8.4872 O.3       1 <0>        -0.3101
     39 C30         2.4514   -2.5601   -9.3619 C.3       1 <0>         0.0247
     40 O3          1.7762   -4.5310   -4.9368 O.3       1 <0>        -0.3111
     41 C31         1.0960   -5.3046   -5.9272 C.3       1 <0>         0.0245
     42 H1          1.0039    1.9031    0.0027 H         1 <0>         0.0803
     43 H2         -0.5459    1.8868   -0.8726 H         1 <0>         0.0531
     44 H3         -0.5289    1.8773    0.9072 H         1 <0>         0.0629
     45 H4          0.2319   -0.1594    2.1383 H         1 <0>         0.0627
     46 H5          0.7568   -1.6008    1.2356 H         1 <0>         0.0533
     47 H6          1.7647   -0.1336    1.2338 H         1 <0>         0.0802
     48 H7         -1.9605   -0.1726   -0.8702 H         1 <0>         0.0629
     49 H8         -1.4185   -1.6235    0.0069 H         1 <0>         0.0631
     50 H9         -1.9435   -0.1821    0.9097 H         1 <0>         0.0763
     51 H10         0.2179   -1.0371   -1.8404 H         1 <0>         0.3953
     52 H11         2.1325   -1.1275   -3.1729 H         1 <0>         0.4160
     53 H12         6.4032   -0.6599   -5.0584 H         1 <0>         0.1520
     54 H13         8.4269    0.5757   -4.2534 H         1 <0>         0.1697
     55 H14         5.9925    2.0642   -0.2459 H         1 <0>         0.1399
     56 H15         9.4075    3.1089   -0.6290 H         1 <0>         0.4049
     57 H16         6.9323    3.9254    0.4590 H         1 <0>         0.0664
     58 H17         7.4748    2.4704    1.3290 H         1 <0>         0.0654
     59 H18         9.6266    3.5858    1.8527 H         1 <0>         0.0703
     60 H19         9.0841    5.0408    0.9827 H         1 <0>         0.0726
     61 H20         7.1775    5.2681    2.5517 H         1 <0>         0.0714
     62 H21         7.7200    3.8131    3.4217 H         1 <0>         0.0678
     63 H22         9.8718    4.9285    3.9454 H         1 <0>         0.0635
     64 H23         9.3293    6.3835    3.0754 H         1 <0>         0.0771
     65 H24         7.4226    6.6108    4.6444 H         1 <0>         0.0897
     66 H25         7.9651    5.1558    5.5144 H         1 <0>         0.0476
     67 H26         9.9260    5.2561    6.9134 H         1 <0>         0.0604
     68 H27        10.8474    5.5507    5.4187 H         1 <0>         0.1254
     69 H28        12.1013    6.3226    7.4212 H         1 <0>         0.1354
     70 H29        11.6897    7.6832    6.3500 H         1 <0>         0.1374
     71 H30         8.9588    8.8960    8.4033 H         1 <0>         0.1356
     72 H31         9.8944    9.1535    6.9111 H         1 <0>         0.1375
     73 H32         7.7003    8.1279    6.4023 H         1 <0>         0.1236
     74 H33         8.0765    6.7707    7.4915 H         1 <0>         0.0603
     75 H34        11.9167    9.1865    8.2139 H         1 <0>         0.1231
     76 H35        10.9702    8.9118    9.6960 H         1 <0>         0.1242
     77 H36        12.3085    7.8150    9.2787 H         1 <0>         0.1242
     78 H37         3.1296   -2.8935   -3.4101 H         1 <0>         0.1344
     79 H38         1.9400   -3.7392   -7.4246 H         1 <0>         0.1382
     80 H39         4.3820   -0.3311   -6.6071 H         1 <0>         0.1379
     81 H40         2.5417   -2.2003  -10.3868 H         1 <0>         0.1055
     82 H41         2.8585   -3.5690   -9.2938 H         1 <0>         0.0576
     83 H42         1.4007   -2.5720   -9.0723 H         1 <0>         0.0571
     84 H43         0.3590   -4.6805   -6.4327 H         1 <0>         0.0576
     85 H44         1.8166   -5.6777   -6.6549 H         1 <0>         0.0578
     86 H45         0.5935   -6.1456   -5.4494 H         1 <0>         0.1052
     87 H46        10.1858    6.8740    8.7378 H         1 <0>         0.4223
@<TRIPOS>BOND
     1    1    2 1
     2    1   42 1
     3    1   43 1
     4    1   44 1
     5    2    3 1
     6    2    4 1
     7    2    5 1
     8    3   45 1
     9    3   46 1
    10    3   47 1
    11    4   48 1
    12    4   49 1
    13    4   50 1
    14    5    6 am
    15    5   51 1
    16    6    7 2
    17    6    8 am
    18    8    9 1
    19    8   52 1
    20    9   18 ar
    21    9   10 ar
    22   10   11 ar
    23   10   32 1
    24   11   12 ar
    25   11   53 1
    26   12   17 ar
    27   12   13 ar
    28   13   14 ar
    29   13   54 1
    30   14   15 ar
    31   15   16 ar
    32   15   19 1
    33   16   17 ar
    34   16   55 1
    35   17   18 ar
    36   19   20 1
    37   19   56 1
    38   20   21 1
    39   20   57 1
    40   20   58 1
    41   21   22 1
    42   21   59 1
    43   21   60 1
    44   22   23 1
    45   22   61 1
    46   22   62 1
    47   23   24 1
    48   23   63 1
    49   23   64 1
    50   24   25 1
    51   24   65 1
    52   24   66 1
    53   25   30 1
    54   25   26 1
    55   26   27 1
    56   26   67 1
    57   26   68 1
    58   27   28 1
    59   27   69 1
    60   27   70 1
    61   28   29 1
    62   28   31 1
    63   28   87 1
    64   29   30 1
    65   29   71 1
    66   29   72 1
    67   30   73 1
    68   30   74 1
    69   31   75 1
    70   31   76 1
    71   31   77 1
    72   32   37 ar
    73   32   33 ar
    74   33   34 ar
    75   33   78 1
    76   34   35 ar
    77   34   40 1
    78   35   36 ar
    79   35   79 1
    80   36   37 ar
    81   36   38 1
    82   37   80 1
    83   38   39 1
    84   39   81 1
    85   39   82 1
    86   39   83 1
    87   40   41 1
    88   41   84 1
    89   41   85 1
    90   41   86 1
@<TRIPOS>MOLECULE
CHEMBL406388
   56    60     0     0     0
SMALL
USER_CHARGES

@<TRIPOS>ATOM
      1 C1         -0.6852    0.0960    1.9680 C.3       1 <0>         0.0149
      2 O1         -0.2788   -0.5615    0.7661 O.3       1 <0>        -0.2863
      3 C2         -1.1359   -0.5060   -0.2880 C.ar      1 <0>         0.1348
      4 C3         -2.3188    0.1634   -0.1626 C.ar      1 <0>        -0.1365
      5 C4         -3.2030    0.2205   -1.2503 C.ar      1 <0>        -0.0900
      6 C5         -4.4359    0.9046   -1.1576 C.ar      1 <0>         0.2829
      7 C6         -5.2557    0.9181   -2.2723 C.ar      1 <0>        -0.2641
      8 C7         -4.8514    0.2700   -3.4326 C.ar      1 <0>         0.2261
      9 N1         -3.7042   -0.3629   -3.5078 N.ar      1 <0>        -0.4814
     10 C8         -2.8624   -0.4159   -2.4688 C.ar      1 <0>         0.1818
     11 C9         -1.6379   -1.0972   -2.5668 C.ar      1 <0>        -0.2357
     12 C10        -0.7932   -1.1322   -1.4950 C.ar      1 <0>         0.2163
     13 O2          0.3927   -1.7877   -1.5971 O.3       1 <0>        -0.2775
     14 C11         0.6864   -2.4059   -2.8515 C.3       1 <0>         0.0116
     15 O3         -4.8046    1.5282   -0.0114 O.3       1 <0>        -0.2127
     16 C12        -5.9556    2.2502   -0.0199 C.ar      1 <0>         0.0439
     17 C13        -7.1863    1.5880    0.0172 C.ar      1 <0>        -0.1344
     18 C14        -8.3555    2.2854    0.0093 C.ar      1 <0>        -0.0850
     19 C15        -8.3301    3.6864   -0.0361 C.ar      1 <0>        -0.0006
     20 C16        -7.0856    4.3617   -0.0733 C.ar      1 <0>        -0.0533
     21 C17        -5.8958    3.6147   -0.0589 C.ar      1 <0>        -0.0777
     22 C18        -7.0605    5.7667   -0.1179 C.ar      1 <0>        -0.0640
     23 C19        -8.2268    6.4718   -0.1252 C.ar      1 <0>        -0.1163
     24 C20        -9.4567    5.8274   -0.0886 C.ar      1 <0>        -0.0501
     25 C21        -9.5289    4.4427   -0.0450 C.ar      1 <0>        -0.1288
     26 C22       -10.8378    3.7652   -0.0078 C.2       1 <0>         0.5666
     27 O4        -10.8945    2.5593    0.1388 O.2       1 <0>        -0.5137
     28 N2        -11.9717    4.4824   -0.1364 N.am      1 <0>        -0.6583
     29 C23       -13.2083    3.8314   -0.1926 C.ar      1 <0>         0.0834
     30 C24       -13.4334    2.6762    0.5525 C.ar      1 <0>        -0.0748
     31 C25       -14.6743    2.0674    0.4636 C.ar      1 <0>        -0.1522
     32 C26       -15.6413    2.6214   -0.3549 C.ar      1 <0>         0.0899
     33 N3        -15.3965    3.7161   -1.0480 N.ar      1 <0>        -0.4640
     34 C27       -14.2317    4.3304   -0.9876 C.ar      1 <0>         0.0847
     35 H1          0.0874   -0.0248    2.7274 H         1 <0>         0.1188
     36 H2         -0.8360    1.1569    1.7686 H         1 <0>         0.0668
     37 H3         -1.6171   -0.3427    2.3248 H         1 <0>         0.0673
     38 H4         -2.5730    0.6462    0.7694 H         1 <0>         0.1725
     39 H5         -6.2060    1.4302   -2.2402 H         1 <0>         0.1850
     40 H6         -5.4993    0.2870   -4.2965 H         1 <0>         0.2124
     41 H7         -1.3633   -1.5877   -3.4890 H         1 <0>         0.1714
     42 H8          1.6600   -2.8930   -2.7974 H         1 <0>         0.1216
     43 H9         -0.0790   -3.1480   -3.0788 H         1 <0>         0.0694
     44 H10         0.7021   -1.6483   -3.6350 H         1 <0>         0.0693
     45 H11        -7.2098    0.5089    0.0523 H         1 <0>         0.1384
     46 H12        -9.2994    1.7612    0.0376 H         1 <0>         0.1832
     47 H13        -4.9395    4.1159   -0.0829 H         1 <0>         0.1469
     48 H14        -6.1152    6.2882   -0.1461 H         1 <0>         0.1421
     49 H15        -8.1940    7.5508   -0.1596 H         1 <0>         0.1438
     50 H16       -10.3660    6.4102   -0.0950 H         1 <0>         0.1373
     51 H17       -11.9301    5.4500   -0.1899 H         1 <0>         0.4146
     52 H18       -12.6594    2.2651    1.1836 H         1 <0>         0.1496
     53 H19       -14.8841    1.1701    1.0269 H         1 <0>         0.1422
     54 H20       -16.6106    2.1507   -0.4278 H         1 <0>         0.1620
     55 H21       -14.0702    5.2281   -1.5660 H         1 <0>         0.1585
     56 H22        -3.4604   -0.8031   -4.3371 H         1 <0>         0.4475
@<TRIPOS>BOND
     1    1    2 1
     2    1   35 1
     3    1   36 1
     4    1   37 1
     5    2    3 1
     6    3   12 ar
     7    3    4 ar
     8    4    5 ar
     9    4   38 1
    10    5   10 ar
    11    5    6 ar
    12    6    7 ar
    13    6   15 1
    14    7    8 ar
    15    7   39 1
    16    8    9 ar
    17    8   40 1
    18    9   10 ar
    19    9   56 1
    20   10   11 ar
    21   11   12 ar
    22   11   41 1
    23   12   13 1
    24   13   14 1
    25   14   42 1
    26   14   43 1
    27   14   44 1
    28   15   16 1
    29   16   21 ar
    30   16   17 ar
    31   17   18 ar
    32   17   45 1
    33   18   19 ar
    34   18   46 1
    35   19   25 ar
    36   19   20 ar
    37   20   21 ar
    38   20   22 ar
    39   21   47 1
    40   22   23 ar
    41   22   48 1
    42   23   24 ar
    43   23   49 1
    44   24   25 ar
    45   24   50 1
    46   25   26 1
    47   26   27 2
    48   26   28 am
    49   28   29 1
    50   28   51 1
    51   29   34 ar
    52   29   30 ar
    53   30   31 ar
    54   30   52 1
    55   31   32 ar
    56   31   53 1
    57   32   33 ar
    58   32   54 1
    59   33   34 ar
    60   34   55 1
@<TRIPOS>MOLECULE
CHEMBL374690
   57    61     0     0     0
SMALL
USER_CHARGES

@<TRIPOS>ATOM
      1 C1         -0.0178    1.4608    0.0101 C.3       1 <0>         0.0847
      2 N1          0.0021   -0.0041    0.0020 N.am      1 <0>        -0.6201
      3 C2          0.0241   -0.7433    1.2666 C.3       1 <0>         0.0715
      4 C3          0.0001   -0.6716   -1.1688 C.2       1 <0>         0.5145
      5 O1         -0.0182   -0.0596   -2.2157 O.2       1 <0>        -0.5109
      6 C4          0.0205   -2.1784   -1.1771 C.3       1 <0>         0.0430
      7 O2          0.0141   -2.6475   -2.5269 O.3       1 <0>        -0.2852
      8 C5          0.0307   -3.9934   -2.7123 C.ar      1 <0>         0.1474
      9 C6          0.0469   -4.8453   -1.6157 C.ar      1 <0>        -0.2097
     10 C7          0.0643   -6.2110   -1.7976 C.ar      1 <0>        -0.0486
     11 C8          0.0651   -6.7438   -3.0899 C.ar      1 <0>        -0.0782
     12 C9          0.0482   -5.8808   -4.1855 C.ar      1 <0>        -0.0286
     13 C10         0.0256   -4.5175   -3.9989 C.ar      1 <0>        -0.1275
     14 C11         0.0537   -6.7420   -5.4248 C.3       1 <0>        -0.0072
     15 C12         0.0752   -8.1689   -4.9328 C.2       1 <0>        -0.2298
     16 C13         0.0815   -8.1428   -3.5709 C.2       1 <0>         0.1134
     17 N2          0.1005   -9.4398   -3.1398 N.pl3     1 <0>        -0.4563
     18 H1          0.1089   -9.7333   -2.2153 H         1 <0>         0.4409
     19 N3          0.1059  -10.2702   -4.2670 N.2       1 <0>        -0.2602
     20 C14         0.0911   -9.5116   -5.3427 C.2       1 <0>         0.1605
     21 C15         0.0902   -9.9930   -6.7475 C.2       1 <0>        -0.0524
     22 C16         0.7834  -11.1397   -7.1020 C.2       1 <0>        -0.0947
     23 C17         0.7549  -11.5474   -8.4085 C.2       1 <0>        -0.0652
     24 S1         -0.2676  -10.2980   -9.1697 S.3       1 <0>         0.1106
     25 C18        -0.5998   -9.3163   -7.7166 C.2       1 <0>        -0.1383
     26 C19         1.3844  -12.6842   -9.0102 C.1       1 <0>        -0.0625
     27 C20         1.9004  -13.6162   -9.5035 C.1       1 <0>        -0.1385
     28 C21         2.5475  -14.7848  -10.1220 C.3       1 <0>         0.1797
     29 O3          2.2425  -14.8149  -11.5178 O.3       1 <0>        -0.3101
     30 C22         2.7668  -15.8384  -12.2419 C.ar      1 <0>         0.1284
     31 C23         3.5537  -16.7974  -11.6207 C.ar      1 <0>        -0.2102
     32 C24         4.0850  -17.8371  -12.3590 C.ar      1 <0>        -0.0794
     33 C25         3.8335  -17.9223  -13.7159 C.ar      1 <0>        -0.1568
     34 C26         3.0499  -16.9676  -14.3374 C.ar      1 <0>        -0.0796
     35 C27         2.5112  -15.9293  -13.6025 C.ar      1 <0>        -0.1495
     36 H2          1.0048    1.8381    0.0023 H         1 <0>         0.0589
     37 H3         -0.5450    1.8219   -0.8730 H         1 <0>         0.0795
     38 H4         -0.5280    1.8123    0.9069 H         1 <0>         0.0746
     39 H5          0.0224   -0.0395    2.0990 H         1 <0>         0.0855
     40 H6         -0.8567   -1.3823    1.3294 H         1 <0>         0.0649
     41 H7          0.9230   -1.3581    1.3125 H         1 <0>         0.0649
     42 H8          0.9202   -2.5324   -0.6737 H         1 <0>         0.0959
     43 H9         -0.8595   -2.5566   -0.6569 H         1 <0>         0.0959
     44 H10         0.0463   -4.4357   -0.6164 H         1 <0>         0.1343
     45 H11         0.0776   -6.8697   -0.9418 H         1 <0>         0.1278
     46 H12         0.0085   -3.8554   -4.8520 H         1 <0>         0.1428
     47 H13        -0.8458   -6.5605   -6.0131 H         1 <0>         0.1025
     48 H14         0.9422   -6.5366   -6.0218 H         1 <0>         0.1044
     49 H15         1.3355  -11.7003   -6.3621 H         1 <0>         0.1444
     50 H16        -1.1921   -8.4178   -7.6257 H         1 <0>         0.1968
     51 H17         3.6269  -14.7160   -9.9874 H         1 <0>         0.0946
     52 H18         2.1797  -15.6959   -9.6501 H         1 <0>         0.0941
     53 H19         3.7510  -16.7309  -10.5610 H         1 <0>         0.1295
     54 H20         4.6977  -18.5839  -11.8758 H         1 <0>         0.1264
     55 H21         4.2501  -18.7358  -14.2913 H         1 <0>         0.1249
     56 H22         2.8552  -17.0361  -15.3975 H         1 <0>         0.1307
     57 H23         1.8956  -15.1863  -14.0876 H         1 <0>         0.1316
@<TRIPOS>BOND
     1    1    2 1
     2    1   36 1
     3    1   37 1
     4    1   38 1
     5    2    3 1
     6    2    4 am
     7    3   39 1
     8    3   40 1
     9    3   41 1
    10    4    5 2
    11    4    6 1
    12    6    7 1
    13    6   42 1
    14    6   43 1
    15    7    8 1
    16    8   13 ar
    17    8    9 ar
    18    9   10 ar
    19    9   44 1
    20   10   11 ar
    21   10   45 1
    22   11   16 1
    23   11   12 ar
    24   12   13 ar
    25   12   14 1
    26   13   46 1
    27   14   15 1
    28   14   47 1
    29   14   48 1
    30   15   20 1
    31   15   16 2
    32   16   17 1
    33   17   18 1
    34   17   19 1
    35   19   20 2
    36   20   21 1
    37   21   25 2
    38   21   22 1
    39   22   23 2
    40   22   49 1
    41   23   24 1
    42   23   26 1
    43   24   25 1
    44   25   50 1
    45   26   27 3
    46   27   28 1
    47   28   29 1
    48   28   51 1
    49   28   52 1
    50   29   30 1
    51   30   35 ar
    52   30   31 ar
    53   31   32 ar
    54   31   53 1
    55   32   33 ar
    56   32   54 1
    57   33   34 ar
    58   33   55 1
    59   34   35 ar
    60   34   56 1
    61   35   57 1
@<TRIPOS>MOLECULE
CHEMBL374690__1
   57    61     0     0     0
SMALL
USER_CHARGES

@<TRIPOS>ATOM
      1 C1         -0.0178    1.4608    0.0101 C.3       1 <0>         0.0897
      2 N1          0.0021   -0.0041    0.0020 N.am      1 <0>        -0.6206
      3 C2          1.2806   -0.7192   -0.0140 C.3       1 <0>         0.0707
      4 C3         -1.1558   -0.6938    0.0094 C.2       1 <0>         0.5140
      5 O1         -2.2142   -0.1017    0.0227 O.2       1 <0>        -0.5103
      6 C4         -1.1354   -2.2006    0.0011 C.3       1 <0>         0.0425
      7 O2         -2.4760   -2.6952    0.0112 O.3       1 <0>        -0.2864
      8 C5         -2.6358   -4.0447    0.0055 C.ar      1 <0>         0.1458
      9 C6         -1.5235   -4.8755   -0.0038 C.ar      1 <0>        -0.2115
     10 C7         -1.6815   -6.2446   -0.0097 C.ar      1 <0>        -0.0402
     11 C8         -2.9626   -6.8006   -0.0063 C.ar      1 <0>        -0.0591
     12 C9         -4.0735   -5.9619    0.0031 C.ar      1 <0>        -0.0310
     13 C10        -3.9111   -4.5929    0.0147 C.ar      1 <0>        -0.1304
     14 C11        -5.3070   -6.8316    0.0040 C.3       1 <0>         0.0013
     15 C12        -4.8146   -8.2574   -0.0058 C.2       1 <0>        -0.2334
     16 C13        -3.4106   -8.2165   -0.0119 C.2       1 <0>         0.1045
     17 N2         -2.9670   -9.4594   -0.0208 N.2       1 <0>        -0.2581
     18 H1         -4.0322  -11.2935   -0.0261 H         1 <0>         0.4446
     19 N3         -4.0681  -10.3241   -0.0208 N.pl3     1 <0>        -0.4629
     20 C14        -5.1999   -9.5637   -0.0107 C.2       1 <0>         0.1677
     21 C15        -6.5924  -10.0660   -0.0069 C.2       1 <0>        -0.0748
     22 C16        -6.9699  -11.1008    0.8370 C.2       1 <0>        -0.1170
     23 C17        -8.2677  -11.5330    0.8068 C.2       1 <0>        -0.0558
     24 S1         -8.9903  -10.4708   -0.4321 S.3       1 <0>         0.1289
     25 C18        -7.5373   -9.5149   -0.8329 C.2       1 <0>        -0.1348
     26 C19        -8.8874  -12.5723    1.5726 C.1       1 <0>        -0.0701
     27 C20        -9.3955  -13.4243    2.2004 C.1       1 <0>        -0.1280
     28 C21       -10.0326  -14.4926    2.9876 C.3       1 <0>         0.1781
     29 O3        -11.4103  -14.5962    2.6227 O.3       1 <0>        -0.3099
     30 C22       -12.1482  -15.5420    3.2614 C.ar      1 <0>         0.1274
     31 C23       -11.5598  -16.3498    4.2236 C.ar      1 <0>        -0.2099
     32 C24       -12.3122  -17.3102    4.8717 C.ar      1 <0>        -0.0794
     33 C25       -13.6505  -17.4670    4.5617 C.ar      1 <0>        -0.1556
     34 C26       -14.2392  -16.6634    3.6028 C.ar      1 <0>        -0.0793
     35 C27       -13.4926  -15.6975    2.9563 C.ar      1 <0>        -0.1487
     36 H2          1.0048    1.8381    0.0023 H         1 <0>         0.0796
     37 H3         -0.5450    1.8219   -0.8730 H         1 <0>         0.0643
     38 H4         -0.5280    1.8123    0.9069 H         1 <0>         0.0643
     39 H5          1.6074   -0.9021    1.0096 H         1 <0>         0.0631
     40 H6          1.1583   -1.6705   -0.5318 H         1 <0>         0.0723
     41 H7          2.0272   -0.1171   -0.5318 H         1 <0>         0.0798
     42 H8         -0.6252   -2.5521   -0.8957 H         1 <0>         0.0959
     43 H9         -0.6082   -2.5617    0.8841 H         1 <0>         0.0959
     44 H10        -0.5318   -4.4479   -0.0069 H         1 <0>         0.1336
     45 H11        -0.8140   -6.8879   -0.0174 H         1 <0>         0.1315
     46 H12        -4.7764   -3.9467    0.0265 H         1 <0>         0.1409
     47 H13        -5.8968   -6.6448    0.9014 H         1 <0>         0.0990
     48 H14        -5.9054   -6.6344   -0.8854 H         1 <0>         0.0977
     49 H15        -6.2532  -11.5564    1.5043 H         1 <0>         0.1403
     50 H16        -7.4298   -8.7099   -1.5448 H         1 <0>         0.1991
     51 H17        -9.5315  -15.4396    2.7873 H         1 <0>         0.0949
     52 H18        -9.9545  -14.2576    4.0491 H         1 <0>         0.0952
     53 H19       -10.5143  -16.2282    4.4655 H         1 <0>         0.1293
     54 H20       -11.8545  -17.9392    5.6208 H         1 <0>         0.1267
     55 H21       -14.2369  -18.2186    5.0692 H         1 <0>         0.1254
     56 H22       -15.2847  -16.7881    3.3622 H         1 <0>         0.1313
     57 H23       -13.9540  -15.0671    2.2105 H         1 <0>         0.1319
@<TRIPOS>BOND
     1    1    2 1
     2    1   36 1
     3    1   37 1
     4    1   38 1
     5    2    3 1
     6    2    4 am
     7    3   39 1
     8    3   40 1
     9    3   41 1
    10    4    5 2
    11    4    6 1
    12    6    7 1
    13    6   42 1
    14    6   43 1
    15    7    8 1
    16    8   13 ar
    17    8    9 ar
    18    9   10 ar
    19    9   44 1
    20   10   11 ar
    21   10   45 1
    22   11   12 ar
    23   11   16 1
    24   12   13 ar
    25   12   14 1
    26   13   46 1
    27   14   47 1
    28   14   48 1
    29   14   15 1
    30   15   16 1
    31   15   20 2
    32   16   17 2
    33   17   19 1
    34   18   19 1
    35   19   20 1
    36   20   21 1
    37   21   25 2
    38   21   22 1
    39   22   23 2
    40   22   49 1
    41   23   24 1
    42   23   26 1
    43   24   25 1
    44   25   50 1
    45   26   27 3
    46   27   28 1
    47   28   29 1
    48   28   51 1
    49   28   52 1
    50   29   30 1
    51   30   35 ar
    52   30   31 ar
    53   31   32 ar
    54   31   53 1
    55   32   33 ar
    56   32   54 1
    57   33   34 ar
    58   33   55 1
    59   34   35 ar
    60   34   56 1
    61   35   57 1
@<TRIPOS>MOLECULE
CHEMBL224889
   53    58     0     0     0
SMALL
USER_CHARGES

@<TRIPOS>ATOM
      1 C1         -0.0167    1.3784    0.0096 C.ar      1 <0>        -0.1565
      2 C2          1.1698    2.0883    0.0021 C.ar      1 <0>        -0.0795
      3 C3          2.3773    1.4175   -0.0134 C.ar      1 <0>        -0.1493
      4 C4          2.3989    0.0304   -0.0210 C.ar      1 <0>         0.1283
      5 C5          1.2070   -0.6796   -0.0130 C.ar      1 <0>        -0.2101
      6 C6          0.0021   -0.0041    0.0020 C.ar      1 <0>        -0.0794
      7 O1          3.5855   -0.6319   -0.0368 O.3       1 <0>        -0.3102
      8 C7          3.5315   -2.0598   -0.0438 C.3       1 <0>         0.1795
      9 C8          4.8997   -2.6026   -0.0608 C.1       1 <0>        -0.1364
     10 C9          5.9909   -3.0354   -0.0744 C.1       1 <0>        -0.0636
     11 C10         7.3219   -3.5634   -0.0909 C.2       1 <0>        -0.0636
     12 C11         8.5141   -2.8905   -0.0935 C.2       1 <0>        -0.0984
     13 C12         9.6910   -3.6224   -0.1101 C.2       1 <0>        -0.0516
     14 C13         9.6151   -4.9889   -0.1233 C.2       1 <0>        -0.1412
     15 S1          7.8522   -5.2675   -0.1054 S.3       1 <0>         0.1157
     16 C14        11.0085   -2.9373   -0.1141 C.2       1 <0>         0.1588
     17 C15        12.1752   -3.3933    0.5198 C.2       1 <0>        -0.2228
     18 C16        13.1658   -2.4888    0.2833 C.2       1 <0>         0.1034
     19 N1         12.6302   -1.4903   -0.4811 N.pl3     1 <0>        -0.4538
     20 H1         13.1002   -0.7066   -0.8063 H         1 <0>         0.4419
     21 N2         11.2855   -1.8004   -0.7174 N.2       1 <0>        -0.2570
     22 C17        14.4198   -2.9282    0.9342 C.ar      1 <0>        -0.0286
     23 C18        15.6906   -2.3489    0.9794 C.ar      1 <0>        -0.0946
     24 C19        16.7076   -2.9749    1.6690 C.ar      1 <0>        -0.0813
     25 C20        16.4763   -4.1753    2.3170 C.ar      1 <0>        -0.0953
     26 C21        15.2202   -4.7555    2.2770 C.ar      1 <0>        -0.0786
     27 C22        14.1980   -4.1377    1.5912 C.ar      1 <0>        -0.0742
     28 C23        12.7518   -4.5038    1.3641 C.3       1 <0>        -0.0071
     29 C24        17.5941   -4.8526    3.0674 C.3       1 <0>         0.1756
     30 N3         17.6032   -4.3857    4.4559 N.pl3     1 <0>        -0.3717
     31 C25        17.5503   -5.1654    5.5561 C.2       1 <0>         0.0521
     32 C26        17.5809   -4.3540    6.6386 C.2       1 <0>        -0.2727
     33 C27        17.6550   -3.0332    6.1844 C.2       1 <0>         0.0438
     34 N4         17.6746   -3.0513    4.8763 N.2       1 <0>        -0.2897
     35 H2         -0.9596    1.9047    0.0260 H         1 <0>         0.1250
     36 H3          1.1525    3.1682    0.0080 H         1 <0>         0.1309
     37 H4          3.3038    1.9724   -0.0200 H         1 <0>         0.1317
     38 H5          1.2211   -1.7595   -0.0193 H         1 <0>         0.1295
     39 H6         -0.9260   -0.5563    0.0082 H         1 <0>         0.1265
     40 H7          3.0134   -2.4083    0.8497 H         1 <0>         0.0944
     41 H8          2.9951   -2.3988   -0.9302 H         1 <0>         0.0944
     42 H9          8.5371   -1.8108   -0.0831 H         1 <0>         0.1441
     43 H10        10.4164   -5.7129   -0.1369 H         1 <0>         0.1962
     44 H11        15.8762   -1.4124    0.4745 H         1 <0>         0.1260
     45 H12        17.6893   -2.5262    1.7032 H         1 <0>         0.1319
     46 H13        15.0419   -5.6927    2.7832 H         1 <0>         0.1302
     47 H14        12.2251   -4.5647    2.3164 H         1 <0>         0.1010
     48 H15        12.6830   -5.4538    0.8340 H         1 <0>         0.0999
     49 H16        17.4430   -5.9319    3.0479 H         1 <0>         0.1078
     50 H17        18.5468   -4.6105    2.5964 H         1 <0>         0.0959
     51 H18        17.4934   -6.2438    5.5701 H         1 <0>         0.1736
     52 H19        17.5524   -4.6704    7.6708 H         1 <0>         0.1472
     53 H20        17.6944   -2.1510    6.8062 H         1 <0>         0.1819
@<TRIPOS>BOND
     1    1    6 ar
     2    1    2 ar
     3    1   35 1
     4    2    3 ar
     5    2   36 1
     6    3    4 ar
     7    3   37 1
     8    4    5 ar
     9    4    7 1
    10    5    6 ar
    11    5   38 1
    12    6   39 1
    13    7    8 1
    14    8    9 1
    15    8   40 1
    16    8   41 1
    17    9   10 3
    18   10   11 1
    19   11   15 1
    20   11   12 2
    21   12   13 1
    22   12   42 1
    23   13   14 2
    24   13   16 1
    25   14   15 1
    26   14   43 1
    27   16   21 2
    28   16   17 1
    29   17   28 1
    30   17   18 2
    31   18   19 1
    32   18   22 1
    33   19   20 1
    34   19   21 1
    35   22   27 ar
    36   22   23 ar
    37   23   24 ar
    38   23   44 1
    39   24   25 ar
    40   24   45 1
    41   25   26 ar
    42   25   29 1
    43   26   27 ar
    44   26   46 1
    45   27   28 1
    46   28   47 1
    47   28   48 1
    48   29   30 1
    49   29   49 1
    50   29   50 1
    51   30   34 1
    52   30   31 1
    53   31   32 2
    54   31   51 1
    55   32   33 1
    56   32   52 1
    57   33   34 2
    58   33   53 1
@<TRIPOS>MOLECULE
CHEMBL224889__1
   53    58     0     0     0
SMALL
USER_CHARGES

@<TRIPOS>ATOM
      1 C1         -0.0167    1.3784    0.0096 C.ar      1 <0>        -0.1556
      2 C2          1.1698    2.0883    0.0021 C.ar      1 <0>        -0.0793
      3 C3          2.3773    1.4175   -0.0134 C.ar      1 <0>        -0.1488
      4 C4          2.3989    0.0304   -0.0210 C.ar      1 <0>         0.1273
      5 C5          1.2070   -0.6796   -0.0130 C.ar      1 <0>        -0.2100
      6 C6          0.0021   -0.0041    0.0020 C.ar      1 <0>        -0.0793
      7 O1          3.5855   -0.6319   -0.0368 O.3       1 <0>        -0.3101
      8 C7          3.5315   -2.0598   -0.0438 C.3       1 <0>         0.1777
      9 C8          4.8997   -2.6026   -0.0608 C.1       1 <0>        -0.1274
     10 C9          5.9909   -3.0354   -0.0744 C.1       1 <0>        -0.0715
     11 C10         7.3219   -3.5634   -0.0909 C.2       1 <0>        -0.0551
     12 C11         8.5132   -2.8903   -0.0935 C.2       1 <0>        -0.1149
     13 C12         9.6919   -3.6223   -0.1101 C.2       1 <0>        -0.0750
     14 C13         9.6145   -4.9907   -0.1233 C.2       1 <0>        -0.1342
     15 S1          7.8514   -5.2677   -0.1054 S.3       1 <0>         0.1274
     16 C14        11.0054   -2.9396   -0.1141 C.2       1 <0>         0.1664
     17 C15        12.0846   -3.2645    0.6505 C.2       1 <0>        -0.2304
     18 C16        13.1235   -2.3713    0.3412 C.2       1 <0>         0.0953
     19 N1         12.6818   -1.5362   -0.5803 N.2       1 <0>        -0.2519
     20 H1         10.7916   -1.4270   -1.5362 H         1 <0>         0.4452
     21 N2         11.3583   -1.8739   -0.8882 N.pl3     1 <0>        -0.4610
     22 C17        14.3148   -2.7038    1.1632 C.ar      1 <0>        -0.0096
     23 C18        15.5808   -2.1186    1.2227 C.ar      1 <0>        -0.0856
     24 C19        16.5325   -2.6215    2.0852 C.ar      1 <0>        -0.0833
     25 C20        16.2374   -3.7052    2.8928 C.ar      1 <0>        -0.0966
     26 C21        14.9851   -4.2902    2.8386 C.ar      1 <0>        -0.0819
     27 C22        14.0269   -3.7935    1.9793 C.ar      1 <0>        -0.0766
     28 C23        12.6033   -4.2117    1.7037 C.3       1 <0>         0.0024
     29 C24        17.2820   -4.2495    3.8327 C.3       1 <0>         0.1760
     30 N3         17.1778   -3.5687    5.1258 N.pl3     1 <0>        -0.3707
     31 C25        17.0255   -4.1648    6.3268 C.2       1 <0>         0.0516
     32 C26        16.9714   -3.1922    7.2661 C.2       1 <0>        -0.2737
     33 C27        17.0948   -1.9595    6.6167 C.2       1 <0>         0.0430
     34 N4         17.2246   -2.1843    5.3344 N.2       1 <0>        -0.2883
     35 H2         -0.9596    1.9047    0.0260 H         1 <0>         0.1255
     36 H3          1.1525    3.1682    0.0080 H         1 <0>         0.1313
     37 H4          3.3038    1.9724   -0.0200 H         1 <0>         0.1319
     38 H5          1.2211   -1.7595   -0.0193 H         1 <0>         0.1292
     39 H6         -0.9260   -0.5563    0.0082 H         1 <0>         0.1268
     40 H7          3.0134   -2.4083    0.8497 H         1 <0>         0.0954
     41 H8          2.9951   -2.3988   -0.9302 H         1 <0>         0.0953
     42 H9          8.5356   -1.8106   -0.0831 H         1 <0>         0.1407
     43 H10        10.4151   -5.7155   -0.1369 H         1 <0>         0.1987
     44 H11        15.8151   -1.2726    0.5936 H         1 <0>         0.1297
     45 H12        17.5116   -2.1679    2.1298 H         1 <0>         0.1316
     46 H13        14.7572   -5.1366    3.4695 H         1 <0>         0.1282
     47 H14        12.0056   -4.1270    2.6113 H         1 <0>         0.0950
     48 H15        12.5783   -5.2360    1.3319 H         1 <0>         0.0946
     49 H16        17.1240   -5.3191    3.9715 H         1 <0>         0.1070
     50 H17        18.2731   -4.0803    3.4118 H         1 <0>         0.0958
     51 H18        16.9585   -5.2277    6.5063 H         1 <0>         0.1731
     52 H19        16.8531   -3.3414    8.3292 H         1 <0>         0.1467
     53 H20        17.0889   -0.9899    7.0923 H         1 <0>         0.1816
@<TRIPOS>BOND
     1    1    6 ar
     2    1    2 ar
     3    1   35 1
     4    2    3 ar
     5    2   36 1
     6    3    4 ar
     7    3   37 1
     8    4    5 ar
     9    4    7 1
    10    5    6 ar
    11    5   38 1
    12    6   39 1
    13    7    8 1
    14    8    9 1
    15    8   40 1
    16    8   41 1
    17    9   10 3
    18   10   11 1
    19   11   15 1
    20   11   12 2
    21   12   13 1
    22   12   42 1
    23   13   14 2
    24   13   16 1
    25   14   15 1
    26   14   43 1
    27   16   17 2
    28   16   21 1
    29   17   18 1
    30   17   28 1
    31   18   19 2
    32   18   22 1
    33   19   21 1
    34   20   21 1
    35   22   27 ar
    36   22   23 ar
    37   23   24 ar
    38   23   44 1
    39   24   25 ar
    40   24   45 1
    41   25   26 ar
    42   25   29 1
    43   26   27 ar
    44   26   46 1
    45   27   28 1
    46   28   47 1
    47   28   48 1
    48   29   30 1
    49   29   49 1
    50   29   50 1
    51   30   34 1
    52   30   31 1
    53   31   32 2
    54   31   51 1
    55   32   33 1
    56   32   52 1
    57   33   34 2
    58   33   53 1
@<TRIPOS>MOLECULE
CHEMBL400569
   66    71     0     0     0
SMALL
USER_CHARGES

@<TRIPOS>ATOM
      1 C1          0.0002    1.4858    0.0454 C.3       1 <0>        -0.1912
      2 C2          0.0079   -0.0440    0.0252 C.3       1 <0>        -0.0105
      3 N1          0.6961   -0.5143   -1.1844 N.4       1 <0>        -0.5109
      4 C3          0.7035   -1.9832   -1.2038 C.3       1 <0>         0.0507
      5 C4          1.4095   -2.4656   -2.4447 C.ar      1 <0>        -0.2119
      6 C5          0.7003   -2.6816   -3.6140 C.ar      1 <0>        -0.0488
      7 C6          1.3978   -3.1285   -4.7392 C.ar      1 <0>        -0.0641
      8 C7          2.7718   -3.3381   -4.6410 C.ar      1 <0>         0.1420
      9 N2          3.4040   -3.1193   -3.5064 N.ar      1 <0>        -0.4647
     10 C8          2.7735   -2.6919   -2.4294 C.ar      1 <0>         0.1274
     11 C9          0.6866   -3.3763   -6.0179 C.ar      1 <0>        -0.1575
     12 C10         1.3836   -3.8272   -7.1360 C.ar      1 <0>         0.0432
     13 C11         0.6649   -4.0442   -8.3121 C.ar      1 <0>        -0.1863
     14 C12         1.0262   -4.5017   -9.6590 C.2       1 <0>         0.1761
     15 N3         -0.0736   -4.5163  -10.3760 N.2       1 <0>        -0.2036
     16 N4         -1.1562   -4.0969   -9.5974 N.pl3     1 <0>        -0.4684
     17 H1         -2.0730   -4.0248   -9.9058 H         1 <0>         0.4569
     18 C13        -0.7223   -3.8039   -8.3312 C.ar      1 <0>         0.3310
     19 N5         -1.3400   -3.3746   -7.2365 N.ar      1 <0>        -0.4901
     20 C14        -0.6923   -3.1654   -6.1131 C.ar      1 <0>         0.1938
     21 C15         2.3769   -4.8761  -10.1223 C.2       1 <0>         0.3435
     22 N6          3.4599   -4.8577   -9.3835 N.2       1 <0>        -0.4465
     23 C16         4.5231   -5.2599  -10.1230 C.ar      1 <0>         0.0145
     24 C17         5.8834   -5.4212   -9.8378 C.ar      1 <0>        -0.0041
     25 C18         6.7379   -5.8530  -10.8107 C.ar      1 <0>        -0.1816
     26 C19         6.2687   -6.1368  -12.0924 C.ar      1 <0>         0.2298
     27 C20         4.9256   -5.9831  -12.3951 C.ar      1 <0>        -0.1922
     28 C21         4.0467   -5.5454  -11.4150 C.ar      1 <0>         0.1105
     29 N7          2.6871   -5.3010  -11.3883 N.pl3     1 <0>        -0.5817
     30 N8          7.1577   -6.5781  -13.0768 N.pl3     1 <0>        -0.6404
     31 C22         8.6047   -6.6368  -12.8180 C.3       1 <0>         0.0983
     32 C23         9.1137   -8.0257  -13.2177 C.3       1 <0>        -0.0239
     33 N9          8.7352   -8.3029  -14.6091 N.4       1 <0>        -0.3843
     34 C24         7.2730   -8.3693  -14.7259 C.3       1 <0>        -0.0227
     35 C25         6.6723   -7.0028  -14.3990 C.3       1 <0>         0.0971
     36 C26         9.3168   -9.5856  -15.0266 C.3       1 <0>        -0.0476
     37 H2          1.0260    1.8544    0.0445 H         1 <0>         0.0811
     38 H3         -0.5204    1.8582   -0.8368 H         1 <0>         0.0806
     39 H4         -0.5104    1.8348    0.9430 H         1 <0>         0.1087
     40 H5          0.5286   -0.4164    0.9075 H         1 <0>         0.1334
     41 H6         -1.0179   -0.4126    0.0262 H         1 <0>         0.1327
     42 H7          0.2142   -0.1696   -2.0011 H         1 <0>         0.4271
     43 H8          1.2242   -2.3556   -0.3215 H         1 <0>         0.1442
     44 H9         -0.3223   -2.3517   -1.2028 H         1 <0>         0.1418
     45 H10        -0.3651   -2.5093   -3.6553 H         1 <0>         0.1482
     46 H11         3.3234   -3.6834   -5.5030 H         1 <0>         0.1714
     47 H12         3.3306   -2.5203   -1.5202 H         1 <0>         0.1654
     48 H13         2.4483   -4.0033   -7.0941 H         1 <0>         0.1587
     49 H14        -1.2355   -2.8200   -5.2459 H         1 <0>         0.1690
     50 H15         6.2573   -5.2038   -8.8482 H         1 <0>         0.1415
     51 H16         7.7870   -5.9756  -10.5856 H         1 <0>         0.1357
     52 H17         4.5647   -6.2029  -13.3890 H         1 <0>         0.1283
     53 H18         9.1138   -5.8759  -13.4095 H         1 <0>         0.0917
     54 H19         8.7942   -6.4683  -11.7579 H         1 <0>         0.1294
     55 H20        10.1992   -8.0559  -13.1233 H         1 <0>         0.1432
     56 H21         8.6708   -8.7771  -12.5639 H         1 <0>         0.1334
     57 H22         7.0022   -8.6528  -15.7429 H         1 <0>         0.1426
     58 H23         6.8859   -9.1103  -14.0265 H         1 <0>         0.1328
     59 H24         5.5849   -7.0762  -14.3837 H         1 <0>         0.1257
     60 H25         6.9829   -6.2795  -15.1529 H         1 <0>         0.0905
     61 H26         8.9426  -10.3811  -14.3822 H         1 <0>         0.1221
     62 H27         9.0366   -9.7926  -16.0594 H         1 <0>         0.1260
     63 H28        10.4028   -9.5349  -14.9479 H         1 <0>         0.1265
     64 H29         1.6457   -0.1732   -1.1852 H         1 <0>         0.4284
     65 H30         9.0859   -7.5677  -15.2046 H         1 <0>         0.4256
     66 H31         2.0683   -5.4076  -12.1276 H         1 <0>         0.4324
@<TRIPOS>BOND
     1    1    2 1
     2    1   37 1
     3    1   38 1
     4    1   39 1
     5    2    3 1
     6    2   40 1
     7    2   41 1
     8    3    4 1
     9    3   42 1
    10    3   64 1
    11    4    5 1
    12    4   43 1
    13    4   44 1
    14    5   10 ar
    15    5    6 ar
    16    6    7 ar
    17    6   45 1
    18    7    8 ar
    19    7   11 1
    20    8    9 ar
    21    8   46 1
    22    9   10 ar
    23   10   47 1
    24   11   20 ar
    25   11   12 ar
    26   12   13 ar
    27   12   48 1
    28   13   18 ar
    29   13   14 1
    30   14   15 2
    31   14   21 1
    32   15   16 1
    33   16   17 1
    34   16   18 1
    35   18   19 ar
    36   19   20 ar
    37   20   49 1
    38   21   29 1
    39   21   22 2
    40   22   23 1
    41   23   28 ar
    42   23   24 ar
    43   24   25 ar
    44   24   50 1
    45   25   26 ar
    46   25   51 1
    47   26   27 ar
    48   26   30 1
    49   27   28 ar
    50   27   52 1
    51   28   29 1
    52   29   66 1
    53   30   35 1
    54   30   31 1
    55   31   32 1
    56   31   53 1
    57   31   54 1
    58   32   33 1
    59   32   55 1
    60   32   56 1
    61   33   34 1
    62   33   36 1
    63   33   65 1
    64   34   35 1
    65   34   57 1
    66   34   58 1
    67   35   59 1
    68   35   60 1
    69   36   61 1
    70   36   62 1
    71   36   63 1
@<TRIPOS>MOLECULE
CHEMBL400569__1
   66    71     0     0     0
SMALL
USER_CHARGES

@<TRIPOS>ATOM
      1 C1         -0.0680    1.3802   -0.0593 C.3       1 <0>        -0.1913
      2 C2         -0.0334   -0.1494   -0.0554 C.3       1 <0>        -0.0106
      3 N1          0.6795   -0.6200    1.1397 N.4       1 <0>        -0.5108
      4 C3          0.7127   -2.0886    1.1435 C.3       1 <0>         0.0503
      5 C4          1.4441   -2.5714    2.3695 C.ar      1 <0>        -0.2104
      6 C5          2.8141   -2.7683    2.3348 C.ar      1 <0>        -0.0489
      7 C6          3.4488   -3.2168    3.4960 C.ar      1 <0>        -0.0620
      8 C7          2.6825   -3.4469    4.6369 C.ar      1 <0>         0.1402
      9 N2          1.3809   -3.2458    4.6220 N.ar      1 <0>        -0.4663
     10 C8          0.7550   -2.8169    3.5429 C.ar      1 <0>         0.1261
     11 C9          4.9150   -3.4448    3.5139 C.ar      1 <0>        -0.1590
     12 C10         5.5438   -3.8974    4.6710 C.ar      1 <0>         0.0436
     13 C11         6.9244   -4.0952    4.6315 C.ar      1 <0>        -0.1851
     14 C12         7.9189   -4.5478    5.6114 C.2       1 <0>         0.1707
     15 N3          9.0883   -4.5412    5.0145 N.2       1 <0>        -0.1975
     16 N4          8.9464   -4.1121    3.6917 N.pl3     1 <0>        -0.4664
     17 H1          9.6692   -4.0245    3.0509 H         1 <0>         0.4578
     18 C13         7.6283   -3.8348    3.4401 C.ar      1 <0>         0.3313
     19 N5          6.9806   -3.4048    2.3632 N.ar      1 <0>        -0.4888
     20 C14         5.6811   -3.2135    2.3673 C.ar      1 <0>         0.1939
     21 C15         7.6533   -4.9381    7.0101 C.2       1 <0>         0.3644
     22 N6          8.6023   -5.3522    7.9060 N.pl3     1 <0>        -0.5753
     23 H2          9.5535   -5.4401    7.7378 H         1 <0>         0.4343
     24 C16         7.9501   -5.6219    9.0965 C.ar      1 <0>         0.0273
     25 C17         8.3706   -6.0665   10.3421 C.ar      1 <0>        -0.0553
     26 C18         7.4533   -6.2436   11.3552 C.ar      1 <0>        -0.1512
     27 C19         6.1022   -5.9791   11.1375 C.ar      1 <0>         0.1982
     28 C20         5.6670   -5.5358    9.9032 C.ar      1 <0>        -0.1418
     29 C21         6.5894   -5.3521    8.8677 C.ar      1 <0>         0.0980
     30 N7          6.4735   -4.9350    7.5834 N.2       1 <0>        -0.4691
     31 N8          5.1813   -6.1640   12.1746 N.pl3     1 <0>        -0.6434
     32 C22         3.7704   -5.7813   12.0104 C.3       1 <0>         0.0989
     33 C23         2.8939   -6.9664   12.4288 C.3       1 <0>        -0.0235
     34 N9          3.2541   -7.3840   13.7896 N.4       1 <0>        -0.3841
     35 C24         4.6337   -7.8865   13.8098 C.3       1 <0>        -0.0233
     36 C25         5.5952   -6.7522   13.4578 C.3       1 <0>         0.0995
     37 C26         2.3413   -8.4468   14.2316 C.3       1 <0>        -0.0474
     38 H3          0.9511    1.7667   -0.0685 H         1 <0>         0.0808
     39 H4         -0.5970    1.7293   -0.9461 H         1 <0>         0.1090
     40 H5         -0.5829    1.7343    0.8338 H         1 <0>         0.0810
     41 H6         -1.0525   -0.5359   -0.0462 H         1 <0>         0.1334
     42 H7          0.4814   -0.5035   -0.9485 H         1 <0>         0.1329
     43 H8          1.6229   -0.2622    1.1312 H         1 <0>         0.4273
     44 H9         -0.3064   -2.4751    1.1527 H         1 <0>         0.1442
     45 H10         1.2276   -2.4427    0.2504 H         1 <0>         0.1422
     46 H11         3.3779   -2.5805    1.4330 H         1 <0>         0.1487
     47 H12         3.1602   -3.7937    5.5413 H         1 <0>         0.1706
     48 H13        -0.3131   -2.6601    3.5748 H         1 <0>         0.1652
     49 H14         4.9799   -4.0891    5.5719 H         1 <0>         0.1581
     50 H15         5.1949   -2.8664    1.4676 H         1 <0>         0.1691
     51 H16         9.4159   -6.2740   10.5173 H         1 <0>         0.1362
     52 H17         7.7833   -6.5897   12.3236 H         1 <0>         0.1367
     53 H18         4.6193   -5.3316    9.7387 H         1 <0>         0.1330
     54 H19         3.5484   -4.9208   12.6415 H         1 <0>         0.0894
     55 H20         3.5772   -5.5334   10.9667 H         1 <0>         0.1271
     56 H21         1.8454   -6.6692   12.4054 H         1 <0>         0.1410
     57 H22         3.0519   -7.7964   11.7401 H         1 <0>         0.1326
     58 H23         4.8674   -8.2672   14.8041 H         1 <0>         0.1426
     59 H24         4.7391   -8.6886   13.0793 H         1 <0>         0.1328
     60 H25         6.6080   -7.1457   13.3706 H         1 <0>         0.1271
     61 H26         5.5607   -5.9913   14.2376 H         1 <0>         0.0896
     62 H27         2.4214   -9.2986   13.5563 H         1 <0>         0.1218
     63 H28         2.6077   -8.7577   15.2418 H         1 <0>         0.1261
     64 H29         1.3176   -8.0725   14.2247 H         1 <0>         0.1254
     65 H30         0.2029   -0.2922    1.9665 H         1 <0>         0.4281
     66 H31         3.1756   -6.5953   14.4140 H         1 <0>         0.4253
@<TRIPOS>BOND
     1    1    2 1
     2    1   38 1
     3    1   39 1
     4    1   40 1
     5    2    3 1
     6    2   41 1
     7    2   42 1
     8    3    4 1
     9    3   43 1
    10    3   65 1
    11    4    5 1
    12    4   44 1
    13    4   45 1
    14    5   10 ar
    15    5    6 ar
    16    6    7 ar
    17    6   46 1
    18    7    8 ar
    19    7   11 1
    20    8    9 ar
    21    8   47 1
    22    9   10 ar
    23   10   48 1
    24   11   20 ar
    25   11   12 ar
    26   12   13 ar
    27   12   49 1
    28   13   18 ar
    29   13   14 1
    30   14   15 2
    31   14   21 1
    32   15   16 1
    33   16   17 1
    34   16   18 1
    35   18   19 ar
    36   19   20 ar
    37   20   50 1
    38   21   30 2
    39   21   22 1
    40   22   23 1
    41   22   24 1
    42   24   29 ar
    43   24   25 ar
    44   25   26 ar
    45   25   51 1
    46   26   27 ar
    47   26   52 1
    48   27   28 ar
    49   27   31 1
    50   28   29 ar
    51   28   53 1
    52   29   30 1
    53   31   36 1
    54   31   32 1
    55   32   33 1
    56   32   54 1
    57   32   55 1
    58   33   34 1
    59   33   56 1
    60   33   57 1
    61   34   35 1
    62   34   37 1
    63   34   66 1
    64   35   36 1
    65   35   58 1
    66   35   59 1
    67   36   60 1
    68   36   61 1
    69   37   62 1
    70   37   63 1
    71   37   64 1
@<TRIPOS>MOLECULE
CHEMBL197339
   64    67     0     0     0
SMALL
USER_CHARGES

@<TRIPOS>ATOM
      1 C1         -0.6365    2.2139   -0.4488 C.3       1 <0>        -0.1866
      2 C2         -0.3617    0.7898    0.0383 C.3       1 <0>         0.0793
      3 C3          0.1987    0.8367    1.4612 C.3       1 <0>        -0.1543
      4 O1         -1.5784    0.0404    0.0300 O.3       1 <0>        -0.3176
      5 C4         -1.9725   -0.4815   -1.1592 C.ar      1 <0>         0.2226
      6 C5         -1.2751   -0.1886   -2.3115 C.ar      1 <0>        -0.2569
      7 C6         -1.6735   -0.7209   -3.5381 C.ar      1 <0>         0.2223
      8 C7         -2.7722   -1.5515   -3.6255 C.ar      1 <0>        -0.2528
      9 C8         -3.4975   -1.8654   -2.4720 C.ar      1 <0>         0.2589
     10 C9         -3.0911   -1.3293   -1.2245 C.ar      1 <0>        -0.2397
     11 C10        -3.8405   -1.6684   -0.0760 C.ar      1 <0>         0.4863
     12 N1         -4.8840   -2.4757   -0.2225 N.ar      1 <0>        -0.5932
     13 C11        -5.2246   -2.9574   -1.4069 C.ar      1 <0>         0.3629
     14 N2         -4.5730   -2.6684   -2.5085 N.ar      1 <0>        -0.5511
     15 N3         -3.4964   -1.1736    1.1661 N.pl3     1 <0>        -0.6181
     16 C12        -4.2238   -1.5528    2.2935 C.ar      1 <0>         0.2386
     17 C13        -5.5590   -1.9314    2.1870 C.ar      1 <0>        -0.1891
     18 C14        -6.2466   -2.3018    3.3320 C.ar      1 <0>         0.3444
     19 N4         -5.6474   -2.2971    4.5122 N.ar      1 <0>        -0.5409
     20 C15        -4.3824   -1.9437    4.6497 C.ar      1 <0>         0.1777
     21 C16        -3.6295   -1.5678    3.5572 C.ar      1 <0>        -0.1643
     22 Cl1        -1.9655   -1.1127    3.7512 Cl        1 <0>        -0.0510
     23 O2         -7.5488   -2.6731    3.2422 O.3       1 <0>        -0.2990
     24 C17        -8.2030   -3.0440    4.4573 C.3       1 <0>         0.0381
     25 O3         -0.9715   -0.4175   -4.6602 O.3       1 <0>        -0.3040
     26 C18        -1.4278   -0.9926   -5.8862 C.3       1 <0>         0.0572
     27 C19        -0.5190   -0.5404   -7.0309 C.3       1 <0>        -0.1162
     28 C20        -1.0075   -1.1562   -8.3436 C.3       1 <0>         0.0582
     29 N5         -0.1349   -0.7220   -9.4428 N.3       1 <0>        -0.5363
     30 C21        -0.2599    0.7243   -9.6747 C.3       1 <0>         0.0124
     31 C22         0.7076    1.1431  -10.7849 C.3       1 <0>         0.0626
     32 O4          0.4327    0.3801  -11.9628 O.3       1 <0>        -0.3851
     33 C23         0.5458   -1.0329  -11.7730 C.3       1 <0>         0.0627
     34 C24        -0.4234   -1.4737  -10.6728 C.3       1 <0>         0.0171
     35 H1          0.2915    2.7855   -0.4425 H         1 <0>         0.0803
     36 H2         -1.0358    2.1805   -1.4625 H         1 <0>         0.0686
     37 H3         -1.3612    2.6903    0.2116 H         1 <0>         0.0710
     38 H4          0.3630    0.3134   -0.6221 H         1 <0>         0.0851
     39 H5         -0.5259    1.3130    2.1216 H         1 <0>         0.0704
     40 H6          0.3946   -0.1779    1.8082 H         1 <0>         0.0673
     41 H7          1.1268    1.4083    1.4675 H         1 <0>         0.0865
     42 H8         -0.4124    0.4594   -2.2645 H         1 <0>         0.1500
     43 H9         -3.0708   -1.9570   -4.5809 H         1 <0>         0.1479
     44 H10        -6.0822   -3.6106   -1.4710 H         1 <0>         0.2021
     45 H11        -2.7485   -0.5622    1.2544 H         1 <0>         0.4350
     46 H12        -6.0522   -1.9360    1.2262 H         1 <0>         0.1817
     47 H13        -3.9301   -1.9533    5.6304 H         1 <0>         0.1728
     48 H14        -8.1854   -2.2031    5.1507 H         1 <0>         0.0610
     49 H15        -9.2364   -3.3179    4.2446 H         1 <0>         0.0992
     50 H16        -7.6863   -3.8937    4.9034 H         1 <0>         0.0615
     51 H17        -1.4019   -2.0796   -5.8094 H         1 <0>         0.0716
     52 H18        -2.4491   -0.6665   -6.0826 H         1 <0>         0.0692
     53 H19        -0.5449    0.5466   -7.1077 H         1 <0>         0.0759
     54 H20         0.5024   -0.8666   -6.8346 H         1 <0>         0.0857
     55 H21        -0.9816   -2.2432   -8.2668 H         1 <0>         0.0820
     56 H22        -2.0288   -0.8300   -8.5400 H         1 <0>         0.0409
     57 H23        -1.2814    0.9579   -9.9749 H         1 <0>         0.0448
     58 H24        -0.0171    1.2622   -8.7583 H         1 <0>         0.0898
     59 H25         0.5779    2.2038  -10.9998 H         1 <0>         0.0993
     60 H26         1.7326    0.9590  -10.4630 H         1 <0>         0.0609
     61 H27         0.2990   -1.5460  -12.7025 H         1 <0>         0.1000
     62 H28         1.5661   -1.2802  -11.4798 H         1 <0>         0.0611
     63 H29        -0.2999   -2.5403  -10.4850 H         1 <0>         0.0884
     64 H30        -1.4475   -1.2753  -10.9889 H         1 <0>         0.0451
@<TRIPOS>BOND
     1    1    2 1
     2    1   35 1
     3    1   36 1
     4    1   37 1
     5    2    3 1
     6    2    4 1
     7    2   38 1
     8    3   39 1
     9    3   40 1
    10    3   41 1
    11    4    5 1
    12    5   10 ar
    13    5    6 ar
    14    6    7 ar
    15    6   42 1
    16    7    8 ar
    17    7   25 1
    18    8    9 ar
    19    8   43 1
    20    9   14 ar
    21    9   10 ar
    22   10   11 ar
    23   11   12 ar
    24   11   15 1
    25   12   13 ar
    26   13   14 ar
    27   13   44 1
    28   15   16 1
    29   15   45 1
    30   16   21 ar
    31   16   17 ar
    32   17   18 ar
    33   17   46 1
    34   18   19 ar
    35   18   23 1
    36   19   20 ar
    37   20   21 ar
    38   20   47 1
    39   21   22 1
    40   23   24 1
    41   24   48 1
    42   24   49 1
    43   24   50 1
    44   25   26 1
    45   26   27 1
    46   26   51 1
    47   26   52 1
    48   27   28 1
    49   27   53 1
    50   27   54 1
    51   28   29 1
    52   28   55 1
    53   28   56 1
    54   29   34 1
    55   29   30 1
    56   30   31 1
    57   30   57 1
    58   30   58 1
    59   31   32 1
    60   31   59 1
    61   31   60 1
    62   32   33 1
    63   33   34 1
    64   33   61 1
    65   33   62 1
    66   34   63 1
    67   34   64 1
@<TRIPOS>MOLECULE
CHEMBL197339__1
   65    68     0     0     0
SMALL
USER_CHARGES

@<TRIPOS>ATOM
      1 C1         -0.4972    1.9170   -0.8443 C.3       1 <0>        -0.1572
      2 C2         -0.2414    0.4102   -0.7732 C.3       1 <0>         0.0790
      3 C3          0.8581    0.1274    0.2524 C.3       1 <0>        -0.1850
      4 O1         -1.4418   -0.2588   -0.3814 O.3       1 <0>        -0.3148
      5 C4         -1.5646   -1.5628   -0.7372 C.ar      1 <0>         0.2322
      6 C5         -0.5103   -2.2231   -1.3306 C.ar      1 <0>        -0.2620
      7 C6         -0.6282   -3.5635   -1.6993 C.ar      1 <0>         0.2160
      8 C7         -1.8004   -4.2576   -1.4784 C.ar      1 <0>        -0.2519
      9 C8         -2.8856   -3.6120   -0.8776 C.ar      1 <0>         0.2611
     10 C9         -2.7656   -2.2518   -0.4981 C.ar      1 <0>        -0.2399
     11 C10        -3.8771   -1.6281    0.1113 C.ar      1 <0>         0.4890
     12 N1         -4.9754   -2.3487    0.3021 N.ar      1 <0>        -0.5888
     13 C11        -5.0413   -3.6186   -0.0639 C.ar      1 <0>         0.3704
     14 N2         -4.0456   -4.2464   -0.6434 N.ar      1 <0>        -0.5560
     15 N3         -3.8222   -0.3041    0.4987 N.pl3     1 <0>        -0.6136
     16 C12        -4.9070    0.2757    1.1553 C.ar      1 <0>         0.2324
     17 C13        -6.1891   -0.2477    1.0144 C.ar      1 <0>        -0.1967
     18 C14        -7.2404    0.3579    1.6845 C.ar      1 <0>         0.3464
     19 N4         -7.0340    1.4189    2.4484 N.ar      1 <0>        -0.5388
     20 C15        -5.8313    1.9415    2.6046 C.ar      1 <0>         0.1808
     21 C16        -4.7337    1.3925    1.9756 C.ar      1 <0>        -0.1649
     22 Cl1        -3.1571    2.0851    2.1956 Cl        1 <0>        -0.0508
     23 O2         -8.4953   -0.1423    1.5557 O.3       1 <0>        -0.2985
     24 C17        -9.5365    0.5255    2.2711 C.3       1 <0>         0.0371
     25 O3          0.4237   -4.1930   -2.2834 O.3       1 <0>        -0.3057
     26 C18         0.2427   -5.5653   -2.6385 C.3       1 <0>         0.0590
     27 C19         1.5253   -6.0998   -3.2789 C.3       1 <0>        -0.1509
     28 C20         1.3315   -7.5691   -3.6592 C.3       1 <0>        -0.0062
     29 N5          2.5630   -8.0823   -4.2740 N.4       1 <0>        -0.3842
     30 C21         2.8057   -7.3822   -5.5429 C.3       1 <0>        -0.0502
     31 C22         4.0893   -7.9185   -6.1815 C.3       1 <0>         0.0363
     32 O4          3.9652   -9.3301   -6.3757 O.3       1 <0>        -0.3561
     33 C23         3.7040  -10.0545   -5.1703 C.3       1 <0>         0.0356
     34 C24         2.4197   -9.5221   -4.5299 C.3       1 <0>        -0.0435
     35 H1          0.4184    2.4273   -1.1432 H         1 <0>         0.0884
     36 H2         -1.2806    2.1185   -1.5750 H         1 <0>         0.0703
     37 H3         -0.8118    2.2787    0.1347 H         1 <0>         0.0710
     38 H4          0.0732    0.0485   -1.7522 H         1 <0>         0.0850
     39 H5          1.7738    0.6377   -0.0465 H         1 <0>         0.0815
     40 H6          0.5436    0.4891    1.2314 H         1 <0>         0.0730
     41 H7          1.0404   -0.9460    0.3030 H         1 <0>         0.0658
     42 H8          0.4157   -1.6979   -1.5122 H         1 <0>         0.1503
     43 H9         -1.8794   -5.2948   -1.7687 H         1 <0>         0.1453
     44 H10        -5.9587   -4.1600    0.1145 H         1 <0>         0.2053
     45 H11        -3.0290    0.2228    0.3140 H         1 <0>         0.4351
     46 H12        -6.3622   -1.1129    0.3915 H         1 <0>         0.1899
     47 H13        -5.7049    2.8079    3.2368 H         1 <0>         0.1744
     48 H14        -9.3188    0.4988    3.3388 H         1 <0>         0.0624
     49 H15        -9.5988    1.5618    1.9389 H         1 <0>         0.0623
     50 H16       -10.4863    0.0255    2.0814 H         1 <0>         0.1008
     51 H17         0.0143   -6.1450   -1.7441 H         1 <0>         0.0800
     52 H18        -0.5807   -5.6516   -3.3475 H         1 <0>         0.0798
     53 H19         1.7537   -5.5202   -4.1733 H         1 <0>         0.0998
     54 H20         2.3487   -6.0136   -2.5699 H         1 <0>         0.1006
     55 H21         1.1031   -8.1488   -2.7648 H         1 <0>         0.1387
     56 H22         0.5081   -7.6554   -4.3682 H         1 <0>         0.1366
     57 H23         1.9662   -7.5506   -6.2175 H         1 <0>         0.1409
     58 H24         2.9122   -6.3140   -5.3542 H         1 <0>         0.1441
     59 H25         4.2484   -7.4313   -7.1434 H         1 <0>         0.1427
     60 H26         4.9352   -7.7144   -5.5250 H         1 <0>         0.0818
     61 H27         3.5843  -11.1131   -5.4005 H         1 <0>         0.1432
     62 H28         4.5367   -9.9235   -4.4793 H         1 <0>         0.0819
     63 H29         2.2397  -10.0425   -3.5892 H         1 <0>         0.1443
     64 H30         1.5803   -9.6897   -5.2048 H         1 <0>         0.1406
     65 H31         3.3405   -7.9272   -3.6500 H         1 <0>         0.4244
@<TRIPOS>BOND
     1    1    2 1
     2    1   35 1
     3    1   36 1
     4    1   37 1
     5    2    3 1
     6    2    4 1
     7    2   38 1
     8    3   39 1
     9    3   40 1
    10    3   41 1
    11    4    5 1
    12    5   10 ar
    13    5    6 ar
    14    6    7 ar
    15    6   42 1
    16    7    8 ar
    17    7   25 1
    18    8    9 ar
    19    8   43 1
    20    9   14 ar
    21    9   10 ar
    22   10   11 ar
    23   11   12 ar
    24   11   15 1
    25   12   13 ar
    26   13   14 ar
    27   13   44 1
    28   15   16 1
    29   15   45 1
    30   16   21 ar
    31   16   17 ar
    32   17   18 ar
    33   17   46 1
    34   18   19 ar
    35   18   23 1
    36   19   20 ar
    37   20   21 ar
    38   20   47 1
    39   21   22 1
    40   23   24 1
    41   24   48 1
    42   24   49 1
    43   24   50 1
    44   25   26 1
    45   26   27 1
    46   26   51 1
    47   26   52 1
    48   27   28 1
    49   27   53 1
    50   27   54 1
    51   28   29 1
    52   28   55 1
    53   28   56 1
    54   29   34 1
    55   29   30 1
    56   29   65 1
    57   30   31 1
    58   30   57 1
    59   30   58 1
    60   31   32 1
    61   31   59 1
    62   31   60 1
    63   32   33 1
    64   33   34 1
    65   33   61 1
    66   33   62 1
    67   34   63 1
    68   34   64 1
@<TRIPOS>MOLECULE
CHEMBL333297
   55    59     0     0     0
SMALL
USER_CHARGES

@<TRIPOS>ATOM
      1 C1         -0.4141    1.2027   -0.5315 C.ar      1 <0>        -0.1490
      2 C2          0.7512    1.9504   -0.6355 C.ar      1 <0>        -0.0496
      3 C3          1.9812    1.3310   -0.6774 C.ar      1 <0>        -0.1671
      4 C4          2.0618   -0.0577   -0.6152 C.ar      1 <0>         0.1963
      5 C5          0.8794   -0.8134   -0.5098 C.ar      1 <0>        -0.1400
      6 C6         -0.3610   -0.1597   -0.4689 C.ar      1 <0>        -0.0493
      7 C7          0.9449   -2.2280   -0.4454 C.2       1 <0>         0.0171
      8 C8          2.1773   -2.8453   -0.4875 C.2       1 <0>        -0.1525
      9 C9          3.3880   -2.0235   -0.5978 C.2       1 <0>         0.5469
     10 N1          3.2918   -0.6820   -0.6558 N.am      1 <0>        -0.6265
     11 O1          4.4826   -2.5563   -0.6356 O.2       1 <0>        -0.5169
     12 C10         2.2775   -4.3164   -0.4220 C.2       1 <0>         0.1557
     13 C11         2.8516   -5.0183    0.5891 C.2       1 <0>        -0.1677
     14 C12         2.7307   -6.4342    0.2476 C.ar      1 <0>        -0.0682
     15 C13         3.1234   -7.6181    0.8804 C.ar      1 <0>        -0.0929
     16 C14         2.8559   -8.8324    0.2817 C.ar      1 <0>         0.0820
     17 C15         2.1994   -8.8806   -0.9457 C.ar      1 <0>        -0.1776
     18 C16         1.8083   -7.7214   -1.5786 C.ar      1 <0>        -0.0839
     19 C17         2.0670   -6.4871   -0.9926 C.ar      1 <0>         0.0847
     20 N2          1.7985   -5.1878   -1.3729 N.pl3     1 <0>        -0.5854
     21 H1          1.3427   -4.9280   -2.1888 H         1 <0>         0.4182
     22 O2          3.2354   -9.9867    0.8924 O.3       1 <0>        -0.3293
     23 C18         2.9279  -11.2087    0.2184 C.3       1 <0>         0.0275
     24 C19         3.4281  -12.3905    1.0515 C.3       1 <0>        -0.0009
     25 N3          2.7063  -12.4283    2.3304 N.4       1 <0>        -0.3838
     26 C20         3.2922  -13.4631    3.1908 C.3       1 <0>        -0.0070
     27 C21         2.5972  -13.4521    4.5540 C.3       1 <0>        -0.1468
     28 C22         1.1038  -13.7312    4.3618 C.3       1 <0>        -0.1388
     29 C23         0.5190  -12.6894    3.4037 C.3       1 <0>        -0.1455
     30 C24         1.2910  -12.7287    2.0831 C.3       1 <0>        -0.0127
     31 H2         -1.3703    1.7035   -0.4953 H         1 <0>         0.1350
     32 H3          0.6929    3.0277   -0.6843 H         1 <0>         0.1376
     33 H4          2.8816    1.9218   -0.7587 H         1 <0>         0.1383
     34 H5         -1.2724   -0.7334   -0.3878 H         1 <0>         0.1377
     35 H6          0.0417   -2.8144   -0.3641 H         1 <0>         0.1458
     36 H7          3.3104   -4.6082    1.4766 H         1 <0>         0.1518
     37 H8          3.6332   -7.5821    1.8319 H         1 <0>         0.1333
     38 H9          1.9953   -9.8361   -1.4059 H         1 <0>         0.1295
     39 H10         1.3002   -7.7711   -2.5303 H         1 <0>         0.1291
     40 H11         1.8490  -11.2887    0.0853 H         1 <0>         0.0840
     41 H12         3.4159  -11.2189   -0.7562 H         1 <0>         0.1073
     42 H13         3.2524  -13.3186    0.5077 H         1 <0>         0.1472
     43 H14         4.4955  -12.2762    1.2400 H         1 <0>         0.1420
     44 H15         3.1612  -14.4396    2.7246 H         1 <0>         0.1284
     45 H16         4.3557  -13.2649    3.3241 H         1 <0>         0.1309
     46 H17         3.0325  -14.2223    5.1907 H         1 <0>         0.1124
     47 H18         2.7279  -12.4760    5.0213 H         1 <0>         0.0882
     48 H19         0.9704  -14.7281    3.9417 H         1 <0>         0.0815
     49 H20         0.5945  -13.6685    5.3235 H         1 <0>         0.0941
     50 H21        -0.5312  -12.9145    3.2182 H         1 <0>         0.1115
     51 H22         0.6065  -11.6975    3.8471 H         1 <0>         0.0883
     52 H23         0.8771  -11.9883    1.3986 H         1 <0>         0.1281
     53 H24         1.2026  -13.7209    1.6405 H         1 <0>         0.1292
     54 H25         4.0978   -0.1471   -0.7283 H         1 <0>         0.4214
     55 H26         2.7841  -11.5313    2.7860 H         1 <0>         0.4302
@<TRIPOS>BOND
     1    1    6 ar
     2    1    2 ar
     3    1   31 1
     4    2    3 ar
     5    2   32 1
     6    3    4 ar
     7    3   33 1
     8    4   10 1
     9    4    5 ar
    10    5    6 ar
    11    5    7 1
    12    6   34 1
    13    7    8 2
    14    7   35 1
    15    8    9 1
    16    8   12 1
    17    9   10 am
    18    9   11 2
    19   10   54 1
    20   12   20 1
    21   12   13 2
    22   13   14 1
    23   13   36 1
    24   14   19 ar
    25   14   15 ar
    26   15   16 ar
    27   15   37 1
    28   16   17 ar
    29   16   22 1
    30   17   18 ar
    31   17   38 1
    32   18   19 ar
    33   18   39 1
    34   19   20 1
    35   20   21 1
    36   22   23 1
    37   23   24 1
    38   23   40 1
    39   23   41 1
    40   24   25 1
    41   24   42 1
    42   24   43 1
    43   25   30 1
    44   25   26 1
    45   25   55 1
    46   26   27 1
    47   26   44 1
    48   26   45 1
    49   27   28 1
    50   27   46 1
    51   27   47 1
    52   28   29 1
    53   28   48 1
    54   28   49 1
    55   29   30 1
    56   29   50 1
    57   29   51 1
    58   30   52 1
    59   30   53 1
@<TRIPOS>MOLECULE
CHEMBL444138
   38    40     0     0     0
SMALL
USER_CHARGES

@<TRIPOS>ATOM
      1 C1          0.5505   -6.8816    4.8309 C.3       1 <0>        -0.1074
      2 C2          0.3312   -6.1606    3.5258 C.ar      1 <0>        -0.1263
      3 C3          1.0339   -6.5439    2.3990 C.ar      1 <0>        -0.0866
      4 C4          0.8353   -5.8859    1.2010 C.ar      1 <0>        -0.1185
      5 C5         -0.0723   -4.8363    1.1260 C.ar      1 <0>         0.1674
      6 C6         -0.7787   -4.4502    2.2566 C.ar      1 <0>        -0.1739
      7 C7         -0.5803   -5.1166    3.4557 C.ar      1 <0>         0.1238
      8 O1         -1.2743   -4.7444    4.5633 O.3       1 <0>        -0.4938
      9 N1         -0.2731   -4.1699   -0.0862 N.pl3     1 <0>        -0.6484
     10 C8         -0.1674   -4.8615   -1.2832 C.ar      1 <0>         0.4670
     11 C9         -0.2454   -4.1841   -2.5023 C.ar      1 <0>        -0.3244
     12 C10        -0.1349   -4.9138   -3.6696 C.ar      1 <0>         0.2149
     13 N2          0.0405   -6.2254   -3.6001 N.ar      1 <0>        -0.5851
     14 C11         0.1109   -6.8420   -2.4297 C.ar      1 <0>         0.5940
     15 N3          0.0151   -6.1779   -1.2874 N.ar      1 <0>        -0.6015
     16 N4          0.2949   -8.2146   -2.3995 N.pl3     1 <0>        -0.6362
     17 C12         0.5076   -8.9177   -3.5890 C.ar      1 <0>         0.1750
     18 C13         1.2045   -8.3236   -4.6337 C.ar      1 <0>        -0.0981
     19 C14         1.4130   -9.0203   -5.8076 C.ar      1 <0>        -0.0932
     20 C15         0.9291  -10.3086   -5.9444 C.ar      1 <0>        -0.1092
     21 C16         0.2345  -10.9036   -4.9062 C.ar      1 <0>        -0.0694
     22 C17         0.0275  -10.2134   -3.7267 C.ar      1 <0>        -0.1235
     23 Br1        -0.4252  -12.6653   -5.0982 Br        1 <0>        -0.0468
     24 H1         -0.1406   -7.7214    4.9027 H         1 <0>         0.0709
     25 H2          1.5755   -7.2499    4.8747 H         1 <0>         0.0655
     26 H3          0.3754   -6.1950    5.6592 H         1 <0>         0.0664
     27 H4          1.7399   -7.3592    2.4556 H         1 <0>         0.1292
     28 H5          1.3860   -6.1871    0.3221 H         1 <0>         0.1374
     29 H6         -1.4847   -3.6348    2.2011 H         1 <0>         0.1301
     30 H7         -0.8355   -4.0642    5.0923 H         1 <0>         0.3895
     31 H8         -0.4863   -3.2237   -0.0900 H         1 <0>         0.4234
     32 H9         -0.3891   -3.1141   -2.5313 H         1 <0>         0.1452
     33 H10        -0.1913   -4.4208   -4.6288 H         1 <0>         0.1729
     34 H11         0.2763   -8.6879   -1.5530 H         1 <0>         0.4247
     35 H12         1.5826   -7.3175   -4.5280 H         1 <0>         0.1425
     36 H13         1.9545   -8.5585   -6.6200 H         1 <0>         0.1352
     37 H14         1.0932  -10.8511   -6.8637 H         1 <0>         0.1333
     38 H15        -0.5108  -10.6797   -2.9147 H         1 <0>         0.1341
@<TRIPOS>BOND
     1    1    2 1
     2    1   24 1
     3    1   25 1
     4    1   26 1
     5    2    7 ar
     6    2    3 ar
     7    3    4 ar
     8    3   27 1
     9    4    5 ar
    10    4   28 1
    11    5    6 ar
    12    5    9 1
    13    6    7 ar
    14    6   29 1
    15    7    8 1
    16    8   30 1
    17    9   10 1
    18    9   31 1
    19   10   15 ar
    20   10   11 ar
    21   11   12 ar
    22   11   32 1
    23   12   13 ar
    24   12   33 1
    25   13   14 ar
    26   14   15 ar
    27   14   16 1
    28   16   17 1
    29   16   34 1
    30   17   22 ar
    31   17   18 ar
    32   18   19 ar
    33   18   35 1
    34   19   20 ar
    35   19   36 1
    36   20   21 ar
    37   20   37 1
    38   21   22 ar
    39   21   23 1
    40   22   38 1
@<TRIPOS>MOLECULE
CHEMBL478442
   40    42     0     0     0
SMALL
USER_CHARGES

@<TRIPOS>ATOM
      1 C1          0.9282    1.4360   -0.0089 C.3       1 <0>        -0.1077
      2 C2          0.6969   -0.0532   -0.0148 C.ar      1 <0>        -0.1245
      3 C3         -0.0935   -0.6327    0.9598 C.ar      1 <0>        -0.0854
      4 C4         -0.3075   -1.9971    0.9581 C.ar      1 <0>        -0.1506
      5 C5          0.2720   -2.7909   -0.0244 C.ar      1 <0>         0.1618
      6 C6          1.0656   -2.2105   -1.0041 C.ar      1 <0>        -0.1308
      7 C7          1.2732   -0.8400   -1.0020 C.ar      1 <0>         0.1234
      8 O1          2.0455   -0.2679   -1.9628 O.3       1 <0>        -0.4915
      9 N1          0.0563   -4.1719   -0.0258 N.pl3     1 <0>        -0.6406
     10 C8         -0.0452   -4.8535   -1.2221 C.ar      1 <0>         0.4637
     11 C9         -0.1411   -6.2652   -1.2479 C.ar      1 <0>        -0.1835
     12 C10        -0.1377   -7.0296   -0.0746 C.ar      1 <0>        -0.1479
     13 C11        -0.2329   -8.3897   -0.1534 C.ar      1 <0>         0.1099
     14 C12        -0.3337   -9.0302   -1.3966 C.ar      1 <0>         0.1633
     15 C13        -0.3389   -8.3013   -2.5649 C.ar      1 <0>        -0.1838
     16 C14        -0.2432   -6.9053   -2.5076 C.ar      1 <0>         0.2013
     17 N2         -0.2447   -6.1494   -3.6168 N.ar      1 <0>        -0.5431
     18 C15        -0.1532   -4.8436   -3.5318 C.ar      1 <0>         0.3433
     19 N3         -0.0611   -4.2022   -2.3777 N.ar      1 <0>        -0.5781
     20 O2         -0.4269  -10.3845   -1.4492 O.3       1 <0>        -0.2974
     21 C16        -0.5270  -10.9781   -2.7452 C.3       1 <0>         0.0202
     22 O3         -0.2295   -9.1311    0.9866 O.3       1 <0>        -0.3004
     23 C17        -0.1239   -8.4208    2.2221 C.3       1 <0>         0.0217
     24 H1          0.1528    1.9264   -0.5974 H         1 <0>         0.0717
     25 H2          0.8943    1.8049    1.0162 H         1 <0>         0.0654
     26 H3          1.9048    1.6537   -0.4413 H         1 <0>         0.0670
     27 H4         -0.5443   -0.0173    1.7243 H         1 <0>         0.1314
     28 H5         -0.9252   -2.4474    1.7210 H         1 <0>         0.1270
     29 H6          1.5171   -2.8250   -1.7688 H         1 <0>         0.1408
     30 H7          2.9835   -0.2153   -1.7338 H         1 <0>         0.3888
     31 H8         -0.0221   -4.6513    0.8138 H         1 <0>         0.4193
     32 H9         -0.0597   -6.5459    0.8879 H         1 <0>         0.1390
     33 H10        -0.4161   -8.8026   -3.5184 H         1 <0>         0.1560
     34 H11        -0.1571   -4.2657   -4.4442 H         1 <0>         0.1977
     35 H12        -1.4183  -10.6034   -3.2486 H         1 <0>         0.0622
     36 H13         0.3558  -10.7222   -3.3312 H         1 <0>         0.0621
     37 H14        -0.5948  -12.0613   -2.6445 H         1 <0>         0.1073
     38 H15        -0.9662   -7.7359    2.3206 H         1 <0>         0.0571
     39 H16        -0.1329   -9.1292    3.0504 H         1 <0>         0.1069
     40 H17         0.8078   -7.8554    2.2376 H         1 <0>         0.0572
@<TRIPOS>BOND
     1    1    2 1
     2    1   24 1
     3    1   25 1
     4    1   26 1
     5    2    7 ar
     6    2    3 ar
     7    3    4 ar
     8    3   27 1
     9    4    5 ar
    10    4   28 1
    11    5    6 ar
    12    5    9 1
    13    6    7 ar
    14    6   29 1
    15    7    8 1
    16    8   30 1
    17    9   10 1
    18    9   31 1
    19   10   19 ar
    20   10   11 ar
    21   11   16 ar
    22   11   12 ar
    23   12   13 ar
    24   12   32 1
    25   13   14 ar
    26   13   22 1
    27   14   15 ar
    28   14   20 1
    29   15   16 ar
    30   15   33 1
    31   16   17 ar
    32   17   18 ar
    33   18   19 ar
    34   18   34 1
    35   20   21 1
    36   21   35 1
    37   21   36 1
    38   21   37 1
    39   22   23 1
    40   23   38 1
    41   23   39 1
    42   23   40 1
@<TRIPOS>MOLECULE
CHEMBL13983
   58    61     0     0     0
SMALL
USER_CHARGES

@<TRIPOS>ATOM
      1 C1         -0.4150    1.4143    0.0421 C.3       1 <0>        -0.0948
      2 C2         -0.1211   -0.0633    0.0078 C.2       1 <0>        -0.0575
      3 C3          0.0576   -0.8412   -1.1191 C.2       1 <0>        -0.0107
      4 N1          0.3054   -2.1349   -0.7093 N.pl3     1 <0>        -0.4931
      5 H1          0.4677   -2.8890   -1.2975 H         1 <0>         0.4253
      6 C4          0.2863   -2.1856    0.6331 C.2       1 <0>         0.1104
      7 C5          0.0303   -0.9171    1.1214 C.2       1 <0>        -0.2365
      8 C6         -0.0687   -0.5296    2.5403 C.2       1 <0>         0.6023
      9 O1         -1.1426   -0.5743    3.1093 O.2       1 <0>        -0.5229
     10 N2          1.0308   -0.1259    3.2070 N.am      1 <0>        -0.7314
     11 C7          0.9324    0.2591    4.6170 C.3       1 <0>         0.1228
     12 C8          2.3130    0.6733    5.1302 C.3       1 <0>        -0.1126
     13 C9          3.2495   -0.5383    5.1152 C.3       1 <0>        -0.1459
     14 C10         4.6037   -0.1366    5.7035 C.3       1 <0>        -0.0065
     15 N3          4.4232    0.3271    7.0844 N.4       1 <0>        -0.3853
     16 C11         3.5844    1.5315    7.0998 C.3       1 <0>        -0.0054
     17 C12         2.1909    1.1940    6.5652 C.3       1 <0>        -0.1411
     18 C13         5.7340    0.6376    7.6704 C.3       1 <0>        -0.0474
     19 C14         0.5128   -3.4191    1.4687 C.3       1 <0>        -0.0985
     20 C15        -0.0030   -0.3914   -2.4562 C.2       1 <0>         0.0734
     21 C16        -0.5015   -1.2202   -3.4414 C.2       1 <0>        -0.1897
     22 C17        -0.4951   -0.9862   -4.9027 C.ar      1 <0>        -0.0735
     23 C18        -0.0270    0.0538   -5.6996 C.ar      1 <0>        -0.1002
     24 C19        -0.1699   -0.0177   -7.0724 C.ar      1 <0>         0.0842
     25 C20        -0.7775   -1.1223   -7.6507 C.ar      1 <0>        -0.1140
     26 C21        -1.2444   -2.1579   -6.8672 C.ar      1 <0>        -0.1029
     27 C22        -1.1094   -2.1033   -5.4843 C.ar      1 <0>         0.1304
     28 N4         -1.4846   -2.9913   -4.4820 N.am      1 <0>        -0.6475
     29 C23        -1.1474   -2.5281   -3.2664 C.2       1 <0>         0.5576
     30 O2         -1.3452   -3.0925   -2.2052 O.2       1 <0>        -0.5108
     31 F1          0.2823    0.9891   -7.8515 F         1 <0>        -0.1328
     32 H2          0.5220    1.9706    0.0666 H         1 <0>         0.0734
     33 H3         -0.9799    1.6932   -0.8475 H         1 <0>         0.0724
     34 H4         -0.9997    1.6480    0.9318 H         1 <0>         0.0697
     35 H5          1.8874   -0.0902    2.7531 H         1 <0>         0.4008
     36 H6          0.2412    1.0960    4.7178 H         1 <0>         0.0784
     37 H7          0.5667   -0.5863    5.1998 H         1 <0>         0.0743
     38 H8          2.7192    1.4574    4.4913 H         1 <0>         0.0975
     39 H9          2.8165   -1.3404    5.7128 H         1 <0>         0.0930
     40 H10         3.3854   -0.8805    4.0893 H         1 <0>         0.1120
     41 H11         5.2730   -0.9968    5.6941 H         1 <0>         0.1316
     42 H12         5.0359    0.6654    5.1050 H         1 <0>         0.1290
     43 H13         3.5011    1.9027    8.1212 H         1 <0>         0.1331
     44 H14         4.0382    2.2979    6.4715 H         1 <0>         0.1293
     45 H15         1.5701    2.0899    6.5757 H         1 <0>         0.1173
     46 H16         1.7359    0.4277    7.1929 H         1 <0>         0.0933
     47 H17         6.2180    1.4190    7.0845 H         1 <0>         0.1216
     48 H18         5.6011    0.9820    8.6960 H         1 <0>         0.1243
     49 H19         6.3555   -0.2578    7.6655 H         1 <0>         0.1238
     50 H20         1.5751   -3.5164    1.6924 H         1 <0>         0.0790
     51 H21        -0.0483   -3.3355    2.3994 H         1 <0>         0.0854
     52 H22         0.1754   -4.2976    0.9186 H         1 <0>         0.0786
     53 H23         0.3406    0.6010   -2.7081 H         1 <0>         0.1578
     54 H24         0.4456    0.9132   -5.2475 H         1 <0>         0.1428
     55 H25        -0.8866   -1.1722   -8.7240 H         1 <0>         0.1480
     56 H26        -1.7162   -3.0126   -7.3291 H         1 <0>         0.1414
     57 H27        -1.9293   -3.8386   -4.6405 H         1 <0>         0.4218
     58 H28         3.9782   -0.3985    7.6263 H         1 <0>         0.4252
@<TRIPOS>BOND
     1    1    2 1
     2    1   32 1
     3    1   33 1
     4    1   34 1
     5    2    7 1
     6    2    3 2
     7    3    4 1
     8    3   20 1
     9    4    5 1
    10    4    6 1
    11    6    7 2
    12    6   19 1
    13    7    8 1
    14    8    9 2
    15    8   10 am
    16   10   11 1
    17   10   35 1
    18   11   12 1
    19   11   36 1
    20   11   37 1
    21   12   17 1
    22   12   13 1
    23   12   38 1
    24   13   14 1
    25   13   39 1
    26   13   40 1
    27   14   15 1
    28   14   41 1
    29   14   42 1
    30   15   16 1
    31   15   18 1
    32   15   58 1
    33   16   17 1
    34   16   43 1
    35   16   44 1
    36   17   45 1
    37   17   46 1
    38   18   47 1
    39   18   48 1
    40   18   49 1
    41   19   50 1
    42   19   51 1
    43   19   52 1
    44   20   21 2
    45   20   53 1
    46   21   29 1
    47   21   22 1
    48   22   27 ar
    49   22   23 ar
    50   23   24 ar
    51   23   54 1
    52   24   25 ar
    53   24   31 1
    54   25   26 ar
    55   25   55 1
    56   26   27 ar
    57   26   56 1
    58   27   28 1
    59   28   29 am
    60   28   57 1
    61   29   30 2
@<TRIPOS>MOLECULE
CHEMBL510814
   58    63     0     0     0
SMALL
USER_CHARGES

@<TRIPOS>ATOM
      1 C1         -1.1857    1.0254   -0.4169 C.3       1 <0>        -0.1157
      2 C2         -1.7123   -0.2505    0.1880 C.ar      1 <0>        -0.0661
      3 C3         -2.9520   -0.7336   -0.1893 C.ar      1 <0>        -0.1347
      4 C4         -3.4384   -1.9041    0.3630 C.ar      1 <0>        -0.0949
      5 C5         -2.6870   -2.5947    1.2939 C.ar      1 <0>        -0.1251
      6 C6         -1.4419   -2.1123    1.6747 C.ar      1 <0>         0.1634
      7 C7         -0.9539   -0.9390    1.1141 C.ar      1 <0>        -0.1472
      8 N1         -0.6784   -2.8093    2.6178 N.am      1 <0>        -0.6809
      9 C8         -0.7427   -4.1543    2.6757 C.2       1 <0>         0.7038
     10 O1         -1.3899   -4.7681    1.8494 O.2       1 <0>        -0.5492
     11 N2         -0.0895   -4.8189    3.6494 N.am      1 <0>        -0.6831
     12 C9         -0.0661   -6.2184    3.6472 C.ar      1 <0>         0.1705
     13 C10        -0.0547   -6.9099    2.4421 C.ar      1 <0>        -0.1150
     14 C11        -0.0316   -8.2886    2.4371 C.ar      1 <0>        -0.0771
     15 C12        -0.0197   -8.9888    3.6428 C.ar      1 <0>        -0.0419
     16 C13        -0.0312   -8.2924    4.8507 C.ar      1 <0>        -0.0918
     17 C14        -0.0485   -6.9136    4.8501 C.ar      1 <0>        -0.1417
     18 C15         0.0047  -10.4714    3.6404 C.2       1 <0>        -0.2547
     19 C16        -1.0782  -11.2025    3.1227 C.2       1 <0>         0.2377
     20 N3         -1.0492  -12.5161    3.1241 N.2       1 <0>        -0.5032
     21 C17        -0.0010  -13.1893    3.6118 C.2       1 <0>         0.3207
     22 C18         0.2681  -14.5588    3.7258 C.2       1 <0>        -0.2158
     23 C19         1.5297  -14.6856    4.3192 C.2       1 <0>         0.1239
     24 N4          2.0082  -13.4889    4.5560 N.2       1 <0>        -0.3251
     25 N5          1.0832  -12.5300    4.1289 N.pl3     1 <0>        -0.3433
     26 C20         1.1022  -11.1610    4.1453 C.2       1 <0>         0.5028
     27 N6          2.1836  -10.4809    4.6558 N.pl3     1 <0>        -0.8240
     28 C21        -0.6177  -15.6671    3.2985 C.ar      1 <0>         0.0244
     29 C22        -1.9575  -15.6798    3.6853 C.ar      1 <0>        -0.0859
     30 C23        -2.7812  -16.7127    3.2864 C.ar      1 <0>        -0.0961
     31 C24        -2.2813  -17.7400    2.5008 C.ar      1 <0>         0.0255
     32 C25        -0.9434  -17.7326    2.1108 C.ar      1 <0>         0.0330
     33 C26        -0.1148  -16.6967    2.5040 C.ar      1 <0>        -0.0942
     34 O2         -0.7041  -18.8419    1.3517 O.3       1 <0>        -0.3102
     35 C27        -1.8002  -19.7358    1.6210 C.3       1 <0>         0.2135
     36 O3         -2.8790  -18.8547    1.9850 O.3       1 <0>        -0.3102
     37 H1         -0.6226    0.7936   -1.3209 H         1 <0>         0.0723
     38 H2         -2.0203    1.6805   -0.6667 H         1 <0>         0.0690
     39 H3         -0.5334    1.5250    0.2994 H         1 <0>         0.0665
     40 H4         -3.5416   -0.1953   -0.9166 H         1 <0>         0.1240
     41 H5         -4.4071   -2.2786    0.0666 H         1 <0>         0.1270
     42 H6         -3.0676   -3.5087    1.7252 H         1 <0>         0.1357
     43 H7          0.0159   -0.5634    1.4053 H         1 <0>         0.1246
     44 H8         -0.1029   -2.3245    3.2299 H         1 <0>         0.4087
     45 H9          0.3643   -4.3273    4.3518 H         1 <0>         0.4096
     46 H10        -0.0642   -6.3670    1.5085 H         1 <0>         0.1400
     47 H11        -0.0230   -8.8256    1.5001 H         1 <0>         0.1306
     48 H12        -0.0220   -8.8324    5.7860 H         1 <0>         0.1276
     49 H13        -0.0527   -6.3736    5.7854 H         1 <0>         0.1294
     50 H14        -1.9367  -10.6832    2.7230 H         1 <0>         0.1795
     51 H15         2.0270  -15.6173    4.5453 H         1 <0>         0.2008
     52 H16         2.1857   -9.5109    4.6661 H         1 <0>         0.4247
     53 H17         2.9440  -10.9712    5.0055 H         1 <0>         0.4174
     54 H18        -2.3504  -14.8813    4.2973 H         1 <0>         0.1365
     55 H19        -3.8184  -16.7211    3.5875 H         1 <0>         0.1356
     56 H20         0.9213  -16.6878    2.1994 H         1 <0>         0.1340
     57 H21        -2.0566  -20.3070    0.7287 H         1 <0>         0.1307
     58 H22        -1.5557  -20.4035    2.4471 H         1 <0>         0.0837
@<TRIPOS>BOND
     1    1    2 1
     2    1   37 1
     3    1   38 1
     4    1   39 1
     5    2    7 ar
     6    2    3 ar
     7    3    4 ar
     8    3   40 1
     9    4    5 ar
    10    4   41 1
    11    5    6 ar
    12    5   42 1
    13    6    7 ar
    14    6    8 1
    15    7   43 1
    16    8    9 am
    17    8   44 1
    18    9   10 2
    19    9   11 am
    20   11   12 1
    21   11   45 1
    22   12   17 ar
    23   12   13 ar
    24   13   14 ar
    25   13   46 1
    26   14   15 ar
    27   14   47 1
    28   15   16 ar
    29   15   18 1
    30   16   17 ar
    31   16   48 1
    32   17   49 1
    33   18   26 2
    34   18   19 1
    35   19   20 2
    36   19   50 1
    37   20   21 1
    38   21   25 1
    39   21   22 2
    40   22   23 1
    41   22   28 1
    42   23   24 2
    43   23   51 1
    44   24   25 1
    45   25   26 1
    46   26   27 1
    47   27   52 1
    48   27   53 1
    49   28   33 ar
    50   28   29 ar
    51   29   30 ar
    52   29   54 1
    53   30   31 ar
    54   30   55 1
    55   31   36 1
    56   31   32 ar
    57   32   33 ar
    58   32   34 1
    59   33   56 1
    60   34   35 1
    61   35   36 1
    62   35   57 1
    63   35   58 1
@<TRIPOS>MOLECULE
CHEMBL452522
   52    56     0     0     0
SMALL
USER_CHARGES

@<TRIPOS>ATOM
      1 C1         -1.1858    1.0256   -0.4167 C.3       1 <0>        -0.1156
      2 C2         -1.7124   -0.2503    0.1882 C.ar      1 <0>        -0.0661
      3 C3         -2.9521   -0.7334   -0.1891 C.ar      1 <0>        -0.1347
      4 C4         -3.4386   -1.9038    0.3631 C.ar      1 <0>        -0.0949
      5 C5         -2.6871   -2.5946    1.2939 C.ar      1 <0>        -0.1252
      6 C6         -1.4421   -2.1122    1.6748 C.ar      1 <0>         0.1635
      7 C7         -0.9540   -0.9389    1.1142 C.ar      1 <0>        -0.1473
      8 N1         -0.6786   -2.8093    2.6178 N.am      1 <0>        -0.6810
      9 C8         -0.7429   -4.1543    2.6757 C.2       1 <0>         0.7038
     10 O1         -1.3901   -4.7681    1.8494 O.2       1 <0>        -0.5492
     11 N2         -0.0898   -4.8189    3.6494 N.am      1 <0>        -0.6829
     12 C9         -0.0664   -6.2184    3.6472 C.ar      1 <0>         0.1699
     13 C10        -0.0549   -6.9099    2.4421 C.ar      1 <0>        -0.1148
     14 C11        -0.0314   -8.2886    2.4371 C.ar      1 <0>        -0.0776
     15 C12        -0.0192   -8.9888    3.6428 C.ar      1 <0>        -0.0406
     16 C13        -0.0308   -8.2924    4.8507 C.ar      1 <0>        -0.0922
     17 C14        -0.0490   -6.9136    4.8501 C.ar      1 <0>        -0.1415
     18 C15         0.0055  -10.4713    3.6404 C.2       1 <0>        -0.2562
     19 C16        -1.0779  -11.2030    3.1226 C.2       1 <0>         0.2351
     20 N3         -1.0494  -12.5161    3.1241 N.2       1 <0>        -0.5020
     21 C17        -0.0009  -13.1899    3.6122 C.2       1 <0>         0.3133
     22 C18         0.2676  -14.5579    3.7273 C.2       1 <0>        -0.1962
     23 C19         1.5275  -14.6859    4.3205 C.2       1 <0>         0.1193
     24 N4          2.0082  -13.4890    4.5575 N.2       1 <0>        -0.3257
     25 N5          1.0840  -12.5297    4.1296 N.pl3     1 <0>        -0.3441
     26 C20         1.1029  -11.1603    4.1451 C.2       1 <0>         0.5018
     27 N6          2.1846  -10.4794    4.6551 N.pl3     1 <0>        -0.8252
     28 C21        -0.6203  -15.6678    3.2995 C.2       1 <0>        -0.0324
     29 C22        -0.1322  -16.7056    2.5119 C.2       1 <0>        -0.1450
     30 C23        -0.9722  -17.6997    2.1424 C.2       1 <0>        -0.1755
     31 S1         -2.5069  -17.2002    2.9042 S.3       1 <0>         0.0286
     32 C24        -1.9334  -15.6959    3.6751 C.2       1 <0>        -0.1500
     33 H1         -0.6228    0.7938   -1.3207 H         1 <0>         0.0723
     34 H2         -2.0204    1.6808   -0.6664 H         1 <0>         0.0690
     35 H3         -0.5335    1.5251    0.2996 H         1 <0>         0.0665
     36 H4         -3.5417   -0.1950   -0.9164 H         1 <0>         0.1239
     37 H5         -4.4072   -2.2783    0.0667 H         1 <0>         0.1270
     38 H6         -3.0678   -3.5086    1.7252 H         1 <0>         0.1357
     39 H7          0.0159   -0.5633    1.4054 H         1 <0>         0.1246
     40 H8         -0.1030   -2.3245    3.2299 H         1 <0>         0.4086
     41 H9          0.3641   -4.3273    4.3518 H         1 <0>         0.4095
     42 H10        -0.0647   -6.3670    1.5085 H         1 <0>         0.1400
     43 H11        -0.0229   -8.8256    1.5001 H         1 <0>         0.1303
     44 H12        -0.0214   -8.8324    5.7860 H         1 <0>         0.1273
     45 H13        -0.0534   -6.3737    5.7854 H         1 <0>         0.1293
     46 H14        -1.9362  -10.6836    2.7227 H         1 <0>         0.1783
     47 H15         2.0235  -15.6182    4.5469 H         1 <0>         0.1988
     48 H16         2.1864   -9.5095    4.6651 H         1 <0>         0.4243
     49 H17         2.9452  -10.9695    5.0048 H         1 <0>         0.4169
     50 H18         0.9016  -16.7172    2.1997 H         1 <0>         0.1321
     51 H19        -0.7667  -18.5723    1.5401 H         1 <0>         0.1848
     52 H20        -2.4827  -14.9899    4.2804 H         1 <0>         0.1813
@<TRIPOS>BOND
     1    1    2 1
     2    1   33 1
     3    1   34 1
     4    1   35 1
     5    2    7 ar
     6    2    3 ar
     7    3    4 ar
     8    3   36 1
     9    4    5 ar
    10    4   37 1
    11    5    6 ar
    12    5   38 1
    13    6    7 ar
    14    6    8 1
    15    7   39 1
    16    8    9 am
    17    8   40 1
    18    9   10 2
    19    9   11 am
    20   11   12 1
    21   11   41 1
    22   12   17 ar
    23   12   13 ar
    24   13   14 ar
    25   13   42 1
    26   14   15 ar
    27   14   43 1
    28   15   16 ar
    29   15   18 1
    30   16   17 ar
    31   16   44 1
    32   17   45 1
    33   18   26 2
    34   18   19 1
    35   19   20 2
    36   19   46 1
    37   20   21 1
    38   21   25 1
    39   21   22 2
    40   22   23 1
    41   22   28 1
    42   23   24 2
    43   23   47 1
    44   24   25 1
    45   25   26 1
    46   26   27 1
    47   27   48 1
    48   27   49 1
    49   28   32 2
    50   28   29 1
    51   29   30 2
    52   29   50 1
    53   30   31 1
    54   30   51 1
    55   31   32 1
    56   32   52 1
@<TRIPOS>MOLECULE
CHEMBL452783
   52    56     0     0     0
SMALL
USER_CHARGES

@<TRIPOS>ATOM
      1 C1         -1.1855    1.0254   -0.4170 C.3       1 <0>        -0.1156
      2 C2         -1.7121   -0.2505    0.1879 C.ar      1 <0>        -0.0662
      3 C3         -2.9518   -0.7336   -0.1894 C.ar      1 <0>        -0.1348
      4 C4         -3.4383   -1.9041    0.3629 C.ar      1 <0>        -0.0949
      5 C5         -2.6869   -2.5947    1.2938 C.ar      1 <0>        -0.1252
      6 C6         -1.4419   -2.1123    1.6747 C.ar      1 <0>         0.1636
      7 C7         -0.9538   -0.9390    1.1141 C.ar      1 <0>        -0.1473
      8 N1         -0.6784   -2.8093    2.6178 N.am      1 <0>        -0.6810
      9 C8         -0.7426   -4.1543    2.6756 C.2       1 <0>         0.7037
     10 O1         -1.3898   -4.7681    1.8493 O.2       1 <0>        -0.5494
     11 N2         -0.0895   -4.8189    3.6494 N.am      1 <0>        -0.6829
     12 C9         -0.0661   -6.2184    3.6472 C.ar      1 <0>         0.1691
     13 C10        -0.0547   -6.9099    2.4421 C.ar      1 <0>        -0.1148
     14 C11        -0.0316   -8.2886    2.4371 C.ar      1 <0>        -0.0781
     15 C12        -0.0197   -8.9888    3.6428 C.ar      1 <0>        -0.0391
     16 C13        -0.0312   -8.2925    4.8507 C.ar      1 <0>        -0.0927
     17 C14        -0.0485   -6.9136    4.8501 C.ar      1 <0>        -0.1415
     18 C15         0.0047  -10.4714    3.6404 C.2       1 <0>        -0.2583
     19 C16        -1.0787  -11.2026    3.1225 C.2       1 <0>         0.2333
     20 N3         -1.0512  -12.5152    3.1238 N.2       1 <0>        -0.5032
     21 C17        -0.0009  -13.1907    3.6130 C.2       1 <0>         0.3038
     22 C18         0.2656  -14.5487    3.7256 C.2       1 <0>        -0.2116
     23 C19         1.5158  -14.6850    4.3134 C.2       1 <0>         0.1061
     24 N4          2.0057  -13.4912    4.5556 N.2       1 <0>        -0.3263
     25 N5          1.0827  -12.5293    4.1298 N.pl3     1 <0>        -0.3447
     26 C20         1.1019  -11.1607    4.1452 C.2       1 <0>         0.5005
     27 N6          2.1836  -10.4801    4.6553 N.pl3     1 <0>        -0.8263
     28 C21        -0.6393  -15.6720    3.2890 C.3       1 <0>        -0.0593
     29 C22        -0.2419  -17.0947    3.6876 C.3       1 <0>        -0.1778
     30 C23        -0.1036  -16.6409    2.2330 C.3       1 <0>        -0.1758
     31 H1         -0.6224    0.7935   -1.3210 H         1 <0>         0.0723
     32 H2         -2.0201    1.6805   -0.6668 H         1 <0>         0.0690
     33 H3         -0.5332    1.5249    0.2993 H         1 <0>         0.0665
     34 H4         -3.5414   -0.1953   -0.9167 H         1 <0>         0.1239
     35 H5         -4.4069   -2.2786    0.0665 H         1 <0>         0.1270
     36 H6         -3.0676   -3.5087    1.7251 H         1 <0>         0.1357
     37 H7          0.0161   -0.5634    1.4053 H         1 <0>         0.1246
     38 H8         -0.1029   -2.3245    3.2299 H         1 <0>         0.4086
     39 H9          0.3643   -4.3273    4.3518 H         1 <0>         0.4094
     40 H10        -0.0642   -6.3671    1.5085 H         1 <0>         0.1398
     41 H11        -0.0230   -8.8257    1.5001 H         1 <0>         0.1303
     42 H12        -0.0224   -8.8325    5.7860 H         1 <0>         0.1271
     43 H13        -0.0527   -6.3737    5.7854 H         1 <0>         0.1291
     44 H14        -1.9368  -10.6828    2.7226 H         1 <0>         0.1775
     45 H15         2.0060  -15.6213    4.5355 H         1 <0>         0.1948
     46 H16         2.1856   -9.5101    4.6652 H         1 <0>         0.4238
     47 H17         2.9441  -10.9702    5.0050 H         1 <0>         0.4163
     48 H18        -1.7029  -15.4352    3.2614 H         1 <0>         0.1136
     49 H19         0.6739  -17.2183    4.2655 H         1 <0>         0.0927
     50 H20        -1.0442  -17.7943    3.9224 H         1 <0>         0.0972
     51 H21        -0.8148  -17.0418    1.5109 H         1 <0>         0.0957
     52 H22         0.9033  -16.4658    1.8540 H         1 <0>         0.0917
@<TRIPOS>BOND
     1    1    2 1
     2    1   31 1
     3    1   32 1
     4    1   33 1
     5    2    7 ar
     6    2    3 ar
     7    3    4 ar
     8    3   34 1
     9    4    5 ar
    10    4   35 1
    11    5    6 ar
    12    5   36 1
    13    6    7 ar
    14    6    8 1
    15    7   37 1
    16    8    9 am
    17    8   38 1
    18    9   10 2
    19    9   11 am
    20   11   12 1
    21   11   39 1
    22   12   17 ar
    23   12   13 ar
    24   13   14 ar
    25   13   40 1
    26   14   15 ar
    27   14   41 1
    28   15   16 ar
    29   15   18 1
    30   16   17 ar
    31   16   42 1
    32   17   43 1
    33   18   26 2
    34   18   19 1
    35   19   20 2
    36   19   44 1
    37   20   21 1
    38   21   25 1
    39   21   22 2
    40   22   23 1
    41   22   28 1
    42   23   24 2
    43   23   45 1
    44   24   25 1
    45   25   26 1
    46   26   27 1
    47   27   46 1
    48   27   47 1
    49   28   30 1
    50   28   29 1
    51   28   48 1
    52   29   30 1
    53   29   49 1
    54   29   50 1
    55   30   51 1
    56   30   52 1
@<TRIPOS>MOLECULE
CHEMBL25579
   54    57     0     0     0
SMALL
USER_CHARGES

@<TRIPOS>ATOM
      1 C1         -1.2326    2.5190   -1.4418 C.3       1 <0>         0.0627
      2 N1         -0.9448    1.1000   -1.2188 N.pl3     1 <0>        -0.5731
      3 C2         -0.7342    0.6004    0.1422 C.3       1 <0>         0.1049
      4 C3         -2.0732    0.1589    0.7363 C.3       1 <0>         0.0262
      5 O1         -2.5774   -0.9560   -0.0019 O.3       1 <0>        -0.3017
      6 C4         -3.7676   -1.4738    0.3991 C.ar      1 <0>         0.1605
      7 C5         -4.4276   -0.9141    1.4708 C.ar      1 <0>        -0.1757
      8 C6         -5.6543   -1.4495    1.8816 C.ar      1 <0>         0.2043
      9 C7         -6.1974   -2.5592    1.1877 C.ar      1 <0>        -0.1810
     10 C8         -5.5066   -3.1095    0.1016 C.ar      1 <0>        -0.1384
     11 C9         -4.3136   -2.5682   -0.2858 C.ar      1 <0>         0.1055
     12 O2         -3.6460   -3.1000   -1.3444 O.3       1 <0>        -0.3082
     13 C10        -4.2537   -4.2141   -2.0012 C.3       1 <0>         0.0191
     14 C11        -7.4391   -3.0781    1.6259 C.ar      1 <0>         0.4672
     15 N2         -8.0303   -2.4992    2.6630 N.ar      1 <0>        -0.5768
     16 C12        -7.4848   -1.4635    3.2807 C.ar      1 <0>         0.3510
     17 N3         -6.3373   -0.9407    2.9192 N.ar      1 <0>        -0.5408
     18 N4         -8.0198   -4.1573    0.9910 N.pl3     1 <0>        -0.6291
     19 C13        -9.3082   -4.5702    1.3497 C.ar      1 <0>         0.1250
     20 C14       -10.1506   -3.7047    2.0343 C.ar      1 <0>        -0.0965
     21 C15       -11.4219   -4.1142    2.3869 C.ar      1 <0>        -0.0925
     22 C16       -11.8571   -5.3863    2.0591 C.ar      1 <0>        -0.0272
     23 C17       -11.0209   -6.2524    1.3768 C.ar      1 <0>        -0.1214
     24 C18        -9.7491   -5.8462    1.0161 C.ar      1 <0>         0.0758
     25 F1         -8.9345   -6.6896    0.3450 F         1 <0>        -0.1333
     26 Cl1       -13.4552   -5.8969    2.5053 Cl        1 <0>        -0.0489
     27 C19        -0.8714    0.2266   -2.2998 C.ar      1 <0>         0.3167
     28 C20        -0.6042   -1.1288   -2.1077 C.ar      1 <0>        -0.1830
     29 C21        -0.5403   -1.9612   -3.2053 C.ar      1 <0>         0.1609
     30 N5         -0.7281   -1.4899   -4.4238 N.ar      1 <0>        -0.4945
     31 C22        -0.9826   -0.2140   -4.6469 C.ar      1 <0>         0.1631
     32 C23        -1.0688    0.6827   -3.6029 C.ar      1 <0>        -0.2113
     33 H1         -0.2978    3.0615   -1.5828 H         1 <0>         0.0804
     34 H2         -1.8539    2.6284   -2.3307 H         1 <0>         0.0849
     35 H3         -1.7603    2.9228   -0.5778 H         1 <0>         0.0925
     36 H4         -0.0508   -0.2484    0.1160 H         1 <0>         0.1041
     37 H5         -0.3069    1.3919    0.7578 H         1 <0>         0.1256
     38 H6         -1.9312   -0.1293    1.7779 H         1 <0>         0.0939
     39 H7         -2.7846    0.9829    0.6810 H         1 <0>         0.0791
     40 H8         -4.0017   -0.0687    1.9906 H         1 <0>         0.1555
     41 H9         -5.9167   -3.9554   -0.4301 H         1 <0>         0.1402
     42 H10        -4.3760   -5.0321   -1.2912 H         1 <0>         0.0618
     43 H11        -5.2294   -3.9199   -2.3881 H         1 <0>         0.0587
     44 H12        -3.6194   -4.5402   -2.8255 H         1 <0>         0.1044
     45 H13        -8.0078   -1.0294    4.1199 H         1 <0>         0.2047
     46 H14        -7.5350   -4.6296    0.2961 H         1 <0>         0.4229
     47 H15        -9.8121   -2.7118    2.2914 H         1 <0>         0.1821
     48 H16       -12.0771   -3.4408    2.9194 H         1 <0>         0.1475
     49 H17       -11.3630   -7.2447    1.1226 H         1 <0>         0.1526
     50 H18        -0.4493   -1.5209   -1.1134 H         1 <0>         0.1767
     51 H19        -0.3336   -3.0120   -3.0661 H         1 <0>         0.2005
     52 H20        -1.1297    0.1311   -5.6597 H         1 <0>         0.2019
     53 H21        -1.2823    1.7244   -3.7920 H         1 <0>         0.1753
     54 H22        -0.6773   -2.0987   -5.1773 H         1 <0>         0.4451
@<TRIPOS>BOND
     1    1    2 1
     2    1   33 1
     3    1   34 1
     4    1   35 1
     5    2    3 1
     6    2   27 1
     7    3    4 1
     8    3   36 1
     9    3   37 1
    10    4    5 1
    11    4   38 1
    12    4   39 1
    13    5    6 1
    14    6   11 ar
    15    6    7 ar
    16    7    8 ar
    17    7   40 1
    18    8   17 ar
    19    8    9 ar
    20    9   10 ar
    21    9   14 ar
    22   10   11 ar
    23   10   41 1
    24   11   12 1
    25   12   13 1
    26   13   42 1
    27   13   43 1
    28   13   44 1
    29   14   15 ar
    30   14   18 1
    31   15   16 ar
    32   16   17 ar
    33   16   45 1
    34   18   19 1
    35   18   46 1
    36   19   24 ar
    37   19   20 ar
    38   20   21 ar
    39   20   47 1
    40   21   22 ar
    41   21   48 1
    42   22   23 ar
    43   22   26 1
    44   23   24 ar
    45   23   49 1
    46   24   25 1
    47   27   32 ar
    48   27   28 ar
    49   28   29 ar
    50   28   50 1
    51   29   30 ar
    52   29   51 1
    53   30   31 ar
    54   30   54 1
    55   31   32 ar
    56   31   52 1
    57   32   53 1
@<TRIPOS>MOLECULE
CHEMBL200766
   53    56     0     0     0
SMALL
USER_CHARGES

@<TRIPOS>ATOM
      1 C1         -0.6516    1.6880    0.1336 C.3       1 <0>         0.0313
      2 O1         -0.5537    0.2628    0.1006 O.3       1 <0>        -0.3827
      3 C2          0.1075   -0.2478   -1.0587 C.3       1 <0>         0.0646
      4 C3          0.1544   -1.7754   -0.9879 C.3       1 <0>         0.0556
      5 O2         -1.1748   -2.2962   -1.0508 O.3       1 <0>        -0.2927
      6 C4         -1.3111   -3.6468   -0.9996 C.ar      1 <0>         0.1541
      7 C5         -0.1994   -4.4319   -0.8872 C.ar      1 <0>        -0.1885
      8 C6         -0.3362   -5.8270   -0.8341 C.ar      1 <0>         0.1882
      9 C7         -1.6339   -6.4040   -0.8983 C.ar      1 <0>        -0.1630
     10 C8         -2.7564   -5.5853   -1.0130 C.ar      1 <0>        -0.1250
     11 C9         -2.5937   -4.2161   -1.0573 C.ar      1 <0>         0.0887
     12 O3         -3.6831   -3.4118   -1.1631 O.3       1 <0>        -0.3039
     13 C10        -4.9594   -4.0521   -1.2172 C.3       1 <0>         0.0238
     14 C11        -1.7337   -7.8648   -0.8392 C.ar      1 <0>         0.4503
     15 N1         -0.5939   -8.5544   -0.7287 N.ar      1 <0>        -0.5672
     16 C12         0.5727   -7.9435   -0.6751 C.ar      1 <0>         0.3299
     17 N2          0.7194   -6.6396   -0.7239 N.ar      1 <0>        -0.5536
     18 N3         -2.9259   -8.4875   -0.8935 N.2       1 <0>        -0.5295
     19 C13        -3.5370   -8.8428    0.2225 C.2       1 <0>         0.2624
     20 C14        -4.7273   -9.6053    0.1854 C.2       1 <0>        -0.3715
     21 C15        -5.3509   -9.9675    1.3353 C.2       1 <0>         0.3148
     22 C16        -4.8561   -9.6100    2.6072 C.2       1 <0>         0.0090
     23 C17        -3.7210   -8.8790    2.7491 C.2       1 <0>         0.0016
     24 C18        -2.9861   -8.4557    1.5500 C.2       1 <0>         0.3700
     25 O4         -1.9619   -7.8046    1.6388 O.2       1 <0>        -0.4098
     26 O5         -3.2668   -8.5480    3.9862 O.3       1 <0>        -0.3011
     27 C19        -3.2757   -7.1613    4.3311 C.3       1 <0>         0.0914
     28 C20        -2.8540   -6.9965    5.7926 C.3       1 <0>        -0.1491
     29 C21        -3.8839   -6.4162    6.7639 C.3       1 <0>        -0.1753
     30 C22        -2.6870   -5.5712    6.3232 C.3       1 <0>        -0.1715
     31 Cl1        -5.7200  -10.1167    4.0252 Cl        1 <0>        -0.0372
     32 O6         -6.4908  -10.6989    1.2588 O.3       1 <0>        -0.6207
     33 H1          0.3485    2.1213    0.1167 H         1 <0>         0.0400
     34 H2         -1.2121    2.0339   -0.7349 H         1 <0>         0.0420
     35 H3         -1.1657    1.9960    1.0440 H         1 <0>         0.0866
     36 H4         -0.4372    0.0580   -1.9520 H         1 <0>         0.0619
     37 H5          1.1233    0.1454   -1.1003 H         1 <0>         0.0714
     38 H6          0.7355   -2.1604   -1.8259 H         1 <0>         0.0811
     39 H7          0.6207   -2.0816   -0.0514 H         1 <0>         0.0746
     40 H8          0.7807   -3.9808   -0.8398 H         1 <0>         0.1462
     41 H9         -3.7444   -6.0187   -1.0625 H         1 <0>         0.1444
     42 H10        -4.9980   -4.7127   -2.0833 H         1 <0>         0.0579
     43 H11        -5.1125   -4.6346   -0.3088 H         1 <0>         0.0557
     44 H12        -5.7413   -3.2972   -1.3010 H         1 <0>         0.1010
     45 H13         1.4609   -8.5515   -0.5858 H         1 <0>         0.1832
     46 H14        -5.1440   -9.9016   -0.7659 H         1 <0>         0.1361
     47 H15        -2.5788   -6.6227    3.6889 H         1 <0>         0.0661
     48 H16        -4.2798   -6.7596    4.1952 H         1 <0>         0.0560
     49 H17        -2.1749   -7.7586    6.1747 H         1 <0>         0.1161
     50 H18        -4.8619   -6.1519    6.3617 H         1 <0>         0.0959
     51 H19        -3.8826   -6.7967    7.7853 H         1 <0>         0.0964
     52 H20        -1.8982   -5.3957    7.0548 H         1 <0>         0.0986
     53 H21        -2.8775   -4.7509    5.6312 H         1 <0>         0.0954
@<TRIPOS>BOND
     1    1    2 1
     2    1   33 1
     3    1   34 1
     4    1   35 1
     5    2    3 1
     6    3    4 1
     7    3   36 1
     8    3   37 1
     9    4    5 1
    10    4   38 1
    11    4   39 1
    12    5    6 1
    13    6   11 ar
    14    6    7 ar
    15    7    8 ar
    16    7   40 1
    17    8   17 ar
    18    8    9 ar
    19    9   10 ar
    20    9   14 ar
    21   10   11 ar
    22   10   41 1
    23   11   12 1
    24   12   13 1
    25   13   42 1
    26   13   43 1
    27   13   44 1
    28   14   15 ar
    29   14   18 1
    30   15   16 ar
    31   16   17 ar
    32   16   45 1
    33   18   19 2
    34   19   24 1
    35   19   20 1
    36   20   21 2
    37   20   46 1
    38   21   22 1
    39   21   32 1
    40   22   23 2
    41   22   31 1
    42   23   24 1
    43   23   26 1
    44   24   25 2
    45   26   27 1
    46   27   28 1
    47   27   47 1
    48   27   48 1
    49   28   30 1
    50   28   29 1
    51   28   49 1
    52   29   30 1
    53   29   50 1
    54   29   51 1
    55   30   52 1
    56   30   53 1
@<TRIPOS>MOLECULE
CHEMBL380915
   36    39     0     0     0
SMALL
USER_CHARGES

@<TRIPOS>ATOM
      1 C1         -1.2689    1.1429    0.3322 C.3       1 <0>         0.0679
      2 N1         -0.6023   -0.1485    0.1472 N.pl3     1 <0>        -0.4595
      3 C2         -0.8172   -0.9782   -0.8908 C.2       1 <0>         0.1920
      4 C3         -0.0264   -2.1054   -0.7537 C.2       1 <0>        -0.2338
      5 C4          0.7359   -1.9213    0.4980 C.ar      1 <0>        -0.0423
      6 C5          0.3363   -0.6776    1.0109 C.ar      1 <0>         0.0816
      7 C6          0.8955   -0.2198    2.1995 C.ar      1 <0>        -0.0957
      8 C7          1.8343   -0.9844    2.8583 C.ar      1 <0>        -0.1036
      9 C8          2.2307   -2.2111    2.3481 C.ar      1 <0>        -0.0948
     10 C9          1.6811   -2.6863    1.1750 C.ar      1 <0>        -0.0586
     11 Br1         2.2248   -4.3587    0.4799 Br        1 <0>        -0.0412
     12 C10         0.0383   -3.2077   -1.6315 C.2       1 <0>         0.1722
     13 C11        -0.0749   -3.0119   -3.0009 C.2       1 <0>        -0.2900
     14 C12        -0.1904   -4.0436   -4.0503 C.2       1 <0>         0.1792
     15 N2         -0.2741   -3.4241   -5.1982 N.2       1 <0>        -0.2238
     16 N3         -0.2259   -2.0408   -5.0286 N.am      1 <0>        -0.5569
     17 C13        -0.1123   -1.7339   -3.7211 C.2       1 <0>         0.5318
     18 O1         -0.0504   -0.6174   -3.2341 O.2       1 <0>        -0.5194
     19 C14        -0.2073   -5.5099   -3.8412 C.ar      1 <0>         0.1408
     20 C15        -0.3166   -6.3722   -4.9338 C.ar      1 <0>         0.0917
     21 N4         -0.3307   -7.6775   -4.7416 N.ar      1 <0>        -0.4335
     22 C16        -0.2416   -8.1686   -3.5170 C.ar      1 <0>         0.0624
     23 C17        -0.1335   -7.3177   -2.4308 C.ar      1 <0>         0.0595
     24 N5         -0.1129   -6.0101   -2.6124 N.ar      1 <0>        -0.4201
     25 H1         -0.6854    1.9257   -0.1524 H         1 <0>         0.0817
     26 H2         -2.2642    1.1048   -0.1106 H         1 <0>         0.0916
     27 H3         -1.3531    1.3591    1.3972 H         1 <0>         0.0889
     28 H4         -1.5016   -0.7926   -1.7054 H         1 <0>         0.1866
     29 H5          0.5944    0.7345    2.6058 H         1 <0>         0.1296
     30 H6          2.2657   -0.6242    3.7806 H         1 <0>         0.1394
     31 H7          2.9675   -2.7999    2.8743 H         1 <0>         0.1381
     32 H8          0.1758   -4.2040   -1.2380 H         1 <0>         0.1636
     33 H9         -0.2716   -1.3921   -5.7483 H         1 <0>         0.4400
     34 H10        -0.3898   -5.9716   -5.9341 H         1 <0>         0.1795
     35 H11        -0.2535   -9.2377   -3.3639 H         1 <0>         0.1765
     36 H12        -0.0614   -7.7243   -1.4329 H         1 <0>         0.1785
@<TRIPOS>BOND
     1    1    2 1
     2    1   25 1
     3    1   26 1
     4    1   27 1
     5    2    6 1
     6    2    3 1
     7    3    4 2
     8    3   28 1
     9    4    5 1
    10    4   12 1
    11    5   10 ar
    12    5    6 ar
    13    6    7 ar
    14    7    8 ar
    15    7   29 1
    16    8    9 ar
    17    8   30 1
    18    9   10 ar
    19    9   31 1
    20   10   11 1
    21   12   13 2
    22   12   32 1
    23   13   17 1
    24   13   14 1
    25   14   15 2
    26   14   19 1
    27   15   16 1
    28   16   17 am
    29   16   33 1
    30   17   18 2
    31   19   24 ar
    32   19   20 ar
    33   20   21 ar
    34   20   34 1
    35   21   22 ar
    36   22   23 ar
    37   22   35 1
    38   23   24 ar
    39   23   36 1
@<TRIPOS>MOLECULE
CHEMBL380915__1
   35    38     0     0     0
SMALL
USER_CHARGES

@<TRIPOS>ATOM
      1 C1         -0.5571    1.4376   -0.0323 C.3       1 <0>         0.0759
      2 N1         -0.2846   -0.0019   -0.0346 N.pl3     1 <0>        -0.4681
      3 C2         -0.3310   -0.7841   -1.1248 C.2       1 <0>         0.1890
      4 C3         -0.0198   -2.0903   -0.7718 C.2       1 <0>        -0.2011
      5 C4          0.2365   -2.0693    0.6835 C.ar      1 <0>        -0.0457
      6 C5          0.0606   -0.7361    1.0838 C.ar      1 <0>         0.0794
      7 C6          0.2421   -0.3972    2.4204 C.ar      1 <0>        -0.1025
      8 C7          0.5946   -1.3667    3.3352 C.ar      1 <0>        -0.1165
      9 C8          0.7713   -2.6826    2.9371 C.ar      1 <0>        -0.1097
     10 C9          0.5873   -3.0397    1.6166 C.ar      1 <0>        -0.0540
     11 Br1         0.8313   -4.8349    1.0748 Br        1 <0>        -0.0469
     12 C10         0.0394   -3.2051   -1.6245 C.2       1 <0>         0.0878
     13 C11         0.5431   -3.0674   -2.9202 C.2       1 <0>        -0.2069
     14 C12         0.5458   -4.0616   -4.0091 C.2       1 <0>        -0.0884
     15 N2          1.1295   -3.4626   -5.0327 N.2       1 <0>        -0.1662
     16 N3          1.4808   -2.2669   -4.7404 N.2       1 <0>        -0.4560
     17 C13         1.1696   -1.9335   -3.5051 C.2       1 <0>         0.3983
     18 O1          1.4047   -0.7385   -2.9050 O.3       1 <0>        -0.6453
     19 C14         0.0094   -5.4385   -3.9652 C.ar      1 <0>         0.2161
     20 C15         0.0963   -6.2617   -5.0913 C.ar      1 <0>         0.0483
     21 N4         -0.3838   -7.4894   -5.0455 N.ar      1 <0>        -0.4361
     22 C16        -0.9463   -7.9412   -3.9367 C.ar      1 <0>        -0.0022
     23 C17        -1.0349   -7.1304   -2.8190 C.ar      1 <0>         0.0605
     24 N5         -0.5533   -5.9012   -2.8511 N.ar      1 <0>        -0.4514
     25 H1          0.3689    1.9829   -0.2147 H         1 <0>         0.0748
     26 H2         -1.2774    1.6723   -0.8160 H         1 <0>         0.0864
     27 H3         -0.9655    1.7285    0.9355 H         1 <0>         0.0798
     28 H4         -0.5736   -0.4491   -2.1224 H         1 <0>         0.1867
     29 H5          0.1074    0.6251    2.7416 H         1 <0>         0.1218
     30 H6          0.7347   -1.0982    4.3719 H         1 <0>         0.1305
     31 H7          1.0474   -3.4323    3.6639 H         1 <0>         0.1299
     32 H8         -0.3045   -4.1686   -1.2784 H         1 <0>         0.1440
     33 H9          0.5551   -5.8934   -5.9970 H         1 <0>         0.1709
     34 H10        -1.3383   -8.9470   -3.9039 H         1 <0>         0.1573
     35 H11        -1.4956   -7.5050   -1.9169 H         1 <0>         0.1596
@<TRIPOS>BOND
     1    1    2 1
     2    1   25 1
     3    1   26 1
     4    1   27 1
     5    2    6 1
     6    2    3 1
     7    3    4 2
     8    3   28 1
     9    4    5 1
    10    4   12 1
    11    5   10 ar
    12    5    6 ar
    13    6    7 ar
    14    7    8 ar
    15    7   29 1
    16    8    9 ar
    17    8   30 1
    18    9   10 ar
    19    9   31 1
    20   10   11 1
    21   12   13 2
    22   12   32 1
    23   13   17 1
    24   13   14 1
    25   14   15 2
    26   14   19 1
    27   15   16 1
    28   16   17 2
    29   17   18 1
    30   19   24 ar
    31   19   20 ar
    32   20   21 ar
    33   20   33 1
    34   21   22 ar
    35   22   23 ar
    36   22   34 1
    37   23   24 ar
    38   23   35 1
@<TRIPOS>MOLECULE
CHEMBL231800
   64    67     0     0     0
SMALL
USER_CHARGES

@<TRIPOS>ATOM
      1 C1          0.4975    0.4337    0.6164 C.3       1 <0>        -0.1799
      2 C2          0.2980   -1.0772    0.4811 C.3       1 <0>         0.1123
      3 C3          0.8957   -1.7818    1.7006 C.3       1 <0>        -0.1738
      4 C4         -1.1751   -1.3837    0.3958 C.ar      1 <0>        -0.1160
      5 C5         -2.0883   -0.5573    1.0260 C.ar      1 <0>        -0.0926
      6 C6         -3.4383   -0.8327    0.9516 C.ar      1 <0>        -0.0523
      7 C7         -3.8816   -1.9466    0.2387 C.ar      1 <0>        -0.0353
      8 C8         -2.9560   -2.7757   -0.3948 C.ar      1 <0>        -0.0733
      9 C9         -1.6090   -2.4871   -0.3171 C.ar      1 <0>        -0.1261
     10 C10        -5.3293   -2.2481    0.1553 C.ar      1 <0>         0.3008
     11 C11        -5.8797   -2.8134   -1.0159 C.ar      1 <0>        -0.1899
     12 C12        -7.2542   -3.0773   -1.0386 C.ar      1 <0>         0.2572
     13 N1         -7.9803   -2.7908    0.0262 N.ar      1 <0>        -0.5432
     14 C13        -7.4292   -2.2600    1.1102 C.ar      1 <0>         0.5904
     15 N2         -6.1331   -1.9968    1.1833 N.ar      1 <0>        -0.5513
     16 N3         -8.2318   -1.9777    2.1992 N.pl3     1 <0>        -0.6189
     17 C14        -9.5772   -2.3577    2.1932 C.ar      1 <0>         0.1410
     18 C15        -9.9677   -3.5259    1.5511 C.ar      1 <0>        -0.1056
     19 C16       -11.2975   -3.8986    1.5475 C.ar      1 <0>        -0.0940
     20 C17       -12.2399   -3.1101    2.1817 C.ar      1 <0>        -0.0866
     21 C18       -11.8546   -1.9464    2.8219 C.ar      1 <0>        -0.0945
     22 C19       -10.5256   -1.5709    2.8342 C.ar      1 <0>        -0.1350
     23 C20       -13.6902   -3.5194    2.1748 C.3       1 <0>        -0.0781
     24 C21       -13.9780   -4.3978    3.3940 C.3       1 <0>         0.0616
     25 N4        -15.3918   -4.7969    3.3873 N.3       1 <0>        -0.5381
     26 C22       -16.2685   -3.6339    3.5876 C.3       1 <0>         0.0136
     27 C23       -17.7298   -4.0845    3.5141 C.3       1 <0>         0.0619
     28 O1        -17.9573   -5.1079    4.4868 O.3       1 <0>        -0.3847
     29 C24       -17.1207   -6.2559    4.3211 C.3       1 <0>         0.0624
     30 C25       -15.6532   -5.8273    4.4028 C.3       1 <0>         0.0176
     31 C26        -5.0549   -3.1079   -2.1489 C.1       1 <0>         0.2655
     32 N5         -4.4006   -3.3416   -3.0476 N.1       1 <0>        -0.4041
     33 N6          0.9683   -1.5525   -0.7365 N.4       1 <0>        -0.6355
     34 H1          1.5629    0.6554    0.6781 H         1 <0>         0.0895
     35 H2          0.0716    0.9357   -0.2524 H         1 <0>         0.0870
     36 H3          0.0001    0.7864    1.5199 H         1 <0>         0.1104
     37 H4          0.3983   -1.4291    2.6040 H         1 <0>         0.1088
     38 H5          0.7536   -2.8582    1.6042 H         1 <0>         0.0844
     39 H6          1.9612   -1.5601    1.7622 H         1 <0>         0.0885
     40 H7         -1.7438    0.3049    1.5777 H         1 <0>         0.1450
     41 H8         -4.1502   -0.1873    1.4445 H         1 <0>         0.1484
     42 H9         -3.2933   -3.6396   -0.9482 H         1 <0>         0.1385
     43 H10        -0.8916   -3.1261   -0.8104 H         1 <0>         0.1253
     44 H11        -7.7145   -3.5088   -1.9151 H         1 <0>         0.1888
     45 H12        -7.8617   -1.5159    2.9678 H         1 <0>         0.4283
     46 H13        -9.2322   -4.1418    1.0550 H         1 <0>         0.1337
     47 H14       -11.6017   -4.8068    1.0484 H         1 <0>         0.1289
     48 H15       -12.5931   -1.3328    3.3163 H         1 <0>         0.1276
     49 H16       -10.2247   -0.6643    3.3381 H         1 <0>         0.1267
     50 H17       -14.3191   -2.6298    2.2113 H         1 <0>         0.0741
     51 H18       -13.9054   -4.0793    1.2647 H         1 <0>         0.0839
     52 H19       -13.3492   -5.2874    3.3575 H         1 <0>         0.0778
     53 H20       -13.7629   -3.8379    4.3041 H         1 <0>         0.0372
     54 H21       -16.0719   -3.1940    4.5654 H         1 <0>         0.0436
     55 H22       -16.0759   -2.8947    2.8100 H         1 <0>         0.0890
     56 H23       -18.3830   -3.2362    3.7188 H         1 <0>         0.0992
     57 H24       -17.9406   -4.4751    2.5186 H         1 <0>         0.0609
     58 H25       -17.3333   -6.9781    5.1093 H         1 <0>         0.0995
     59 H26       -17.3138   -6.7097    3.3490 H         1 <0>         0.0611
     60 H27       -15.0116   -6.6893    4.2201 H         1 <0>         0.0870
     61 H28       -15.4468   -5.4226    5.3936 H         1 <0>         0.0437
     62 H29         1.9546   -1.3473   -0.6794 H         1 <0>         0.4379
     63 H30         0.8367   -2.5489   -0.8258 H         1 <0>         0.4328
     64 H31         0.5741   -1.0878   -1.5407 H         1 <0>         0.4371
@<TRIPOS>BOND
     1    1    2 1
     2    1   34 1
     3    1   35 1
     4    1   36 1
     5    2    3 1
     6    2    4 1
     7    2   33 1
     8    3   37 1
     9    3   38 1
    10    3   39 1
    11    4    9 ar
    12    4    5 ar
    13    5    6 ar
    14    5   40 1
    15    6    7 ar
    16    6   41 1
    17    7    8 ar
    18    7   10 1
    19    8    9 ar
    20    8   42 1
    21    9   43 1
    22   10   15 ar
    23   10   11 ar
    24   11   12 ar
    25   11   31 1
    26   12   13 ar
    27   12   44 1
    28   13   14 ar
    29   14   15 ar
    30   14   16 1
    31   16   17 1
    32   16   45 1
    33   17   22 ar
    34   17   18 ar
    35   18   19 ar
    36   18   46 1
    37   19   20 ar
    38   19   47 1
    39   20   21 ar
    40   20   23 1
    41   21   22 ar
    42   21   48 1
    43   22   49 1
    44   23   24 1
    45   23   50 1
    46   23   51 1
    47   24   25 1
    48   24   52 1
    49   24   53 1
    50   25   30 1
    51   25   26 1
    52   26   27 1
    53   26   54 1
    54   26   55 1
    55   27   28 1
    56   27   56 1
    57   27   57 1
    58   28   29 1
    59   29   30 1
    60   29   58 1
    61   29   59 1
    62   30   60 1
    63   30   61 1
    64   31   32 3
    65   33   62 1
    66   33   63 1
    67   33   64 1
@<TRIPOS>MOLECULE
CHEMBL231800__1
   65    68     0     0     0
SMALL
USER_CHARGES

@<TRIPOS>ATOM
      1 C1          0.4975    0.4337    0.6164 C.3       1 <0>        -0.1806
      2 C2          0.2980   -1.0772    0.4811 C.3       1 <0>         0.1112
      3 C3          0.8957   -1.7818    1.7006 C.3       1 <0>        -0.1743
      4 C4         -1.1751   -1.3837    0.3958 C.ar      1 <0>        -0.1107
      5 C5         -2.0883   -0.5573    1.0260 C.ar      1 <0>        -0.0923
      6 C6         -3.4383   -0.8327    0.9516 C.ar      1 <0>        -0.0510
      7 C7         -3.8816   -1.9466    0.2387 C.ar      1 <0>        -0.0428
      8 C8         -2.9560   -2.7757   -0.3948 C.ar      1 <0>        -0.0723
      9 C9         -1.6090   -2.4871   -0.3171 C.ar      1 <0>        -0.1256
     10 C10        -5.3293   -2.2481    0.1553 C.ar      1 <0>         0.3049
     11 C11        -5.8797   -2.8134   -1.0159 C.ar      1 <0>        -0.1773
     12 C12        -7.2542   -3.0773   -1.0386 C.ar      1 <0>         0.2553
     13 N1         -7.9803   -2.7908    0.0262 N.ar      1 <0>        -0.5484
     14 C13        -7.4292   -2.2600    1.1102 C.ar      1 <0>         0.5872
     15 N2         -6.1331   -1.9968    1.1833 N.ar      1 <0>        -0.5466
     16 N3         -8.2318   -1.9777    2.1992 N.pl3     1 <0>        -0.6262
     17 C14        -9.5772   -2.3577    2.1932 C.ar      1 <0>         0.1720
     18 C15        -9.9677   -3.5259    1.5511 C.ar      1 <0>        -0.1085
     19 C16       -11.2975   -3.8986    1.5475 C.ar      1 <0>        -0.0859
     20 C17       -12.2399   -3.1101    2.1817 C.ar      1 <0>        -0.1199
     21 C18       -11.8546   -1.9464    2.8219 C.ar      1 <0>        -0.0838
     22 C19       -10.5256   -1.5709    2.8342 C.ar      1 <0>        -0.1379
     23 C20       -13.6902   -3.5194    2.1748 C.3       1 <0>        -0.0990
     24 C21       -13.9780   -4.3978    3.3940 C.3       1 <0>        -0.0064
     25 N4        -15.3918   -4.7969    3.3873 N.4       1 <0>        -0.3863
     26 C22       -16.2375   -3.6074    3.5581 C.3       1 <0>        -0.0486
     27 C23       -17.7099   -4.0258    3.5505 C.3       1 <0>         0.0355
     28 O1        -17.9335   -4.9829    4.5896 O.3       1 <0>        -0.3558
     29 C24       -17.1146   -6.1505    4.4802 C.3       1 <0>         0.0352
     30 C25       -15.6410   -5.7361    4.4895 C.3       1 <0>        -0.0433
     31 C26        -5.0549   -3.1079   -2.1489 C.1       1 <0>         0.2582
     32 N5         -4.4006   -3.3416   -3.0476 N.1       1 <0>        -0.3919
     33 N6          0.9683   -1.5525   -0.7365 N.4       1 <0>        -0.6357
     34 H1          1.5629    0.6554    0.6781 H         1 <0>         0.0912
     35 H2          0.0716    0.9357   -0.2524 H         1 <0>         0.0872
     36 H3          0.0001    0.7864    1.5199 H         1 <0>         0.1104
     37 H4          0.3983   -1.4291    2.6040 H         1 <0>         0.1088
     38 H5          0.7536   -2.8582    1.6042 H         1 <0>         0.0844
     39 H6          1.9612   -1.5601    1.7622 H         1 <0>         0.0903
     40 H7         -1.7438    0.3049    1.5777 H         1 <0>         0.1466
     41 H8         -4.1502   -0.1873    1.4445 H         1 <0>         0.1480
     42 H9         -3.2933   -3.6396   -0.9482 H         1 <0>         0.1382
     43 H10        -0.8916   -3.1261   -0.8104 H         1 <0>         0.1271
     44 H11        -7.7145   -3.5088   -1.9151 H         1 <0>         0.1907
     45 H12        -7.8617   -1.5159    2.9678 H         1 <0>         0.4316
     46 H13        -9.2322   -4.1418    1.0550 H         1 <0>         0.1400
     47 H14       -11.6017   -4.8068    1.0484 H         1 <0>         0.1295
     48 H15       -12.5931   -1.3328    3.3163 H         1 <0>         0.1306
     49 H16       -10.2247   -0.6643    3.3381 H         1 <0>         0.1337
     50 H17       -14.3191   -2.6298    2.2113 H         1 <0>         0.0955
     51 H18       -13.9054   -4.0793    1.2647 H         1 <0>         0.0962
     52 H19       -13.3492   -5.2874    3.3575 H         1 <0>         0.1338
     53 H20       -13.7629   -3.8379    4.3041 H         1 <0>         0.1321
     54 H21       -16.0010   -3.1264    4.5072 H         1 <0>         0.1396
     55 H22       -16.0534   -2.9100    2.7408 H         1 <0>         0.1434
     56 H23       -18.3377   -3.1511    3.7201 H         1 <0>         0.1424
     57 H24       -17.9569   -4.4706    2.5865 H         1 <0>         0.0817
     58 H25       -17.3115   -6.8135    5.3226 H         1 <0>         0.1426
     59 H26       -17.3412   -6.6681    3.5481 H         1 <0>         0.0817
     60 H27       -15.0142   -6.6189    4.3637 H         1 <0>         0.1426
     61 H28       -15.4048   -5.2543    5.4383 H         1 <0>         0.1391
     62 H29         1.9546   -1.3473   -0.6794 H         1 <0>         0.4394
     63 H30         0.8367   -2.5489   -0.8258 H         1 <0>         0.4328
     64 H31         0.5741   -1.0878   -1.5407 H         1 <0>         0.4373
     65 H32       -15.6114   -5.2427    2.5092 H         1 <0>         0.4232
@<TRIPOS>BOND
     1    1    2 1
     2    1   34 1
     3    1   35 1
     4    1   36 1
     5    2    3 1
     6    2    4 1
     7    2   33 1
     8    3   37 1
     9    3   38 1
    10    3   39 1
    11    4    9 ar
    12    4    5 ar
    13    5    6 ar
    14    5   40 1
    15    6    7 ar
    16    6   41 1
    17    7    8 ar
    18    7   10 1
    19    8    9 ar
    20    8   42 1
    21    9   43 1
    22   10   15 ar
    23   10   11 ar
    24   11   12 ar
    25   11   31 1
    26   12   13 ar
    27   12   44 1
    28   13   14 ar
    29   14   15 ar
    30   14   16 1
    31   16   17 1
    32   16   45 1
    33   17   22 ar
    34   17   18 ar
    35   18   19 ar
    36   18   46 1
    37   19   20 ar
    38   19   47 1
    39   20   21 ar
    40   20   23 1
    41   21   22 ar
    42   21   48 1
    43   22   49 1
    44   23   24 1
    45   23   50 1
    46   23   51 1
    47   24   25 1
    48   24   52 1
    49   24   53 1
    50   25   30 1
    51   25   26 1
    52   25   65 1
    53   26   27 1
    54   26   54 1
    55   26   55 1
    56   27   28 1
    57   27   56 1
    58   27   57 1
    59   28   29 1
    60   29   30 1
    61   29   58 1
    62   29   59 1
    63   30   60 1
    64   30   61 1
    65   31   32 3
    66   33   62 1
    67   33   63 1
    68   33   64 1
@<TRIPOS>MOLECULE
CHEMBL565807
   63    68     0     0     0
SMALL
USER_CHARGES

@<TRIPOS>ATOM
      1 C1         -1.8271    4.1863   -0.2384 C.3       1 <0>        -0.1721
      2 C2         -0.9646    3.0881    0.3869 C.3       1 <0>         0.0978
      3 N1         -1.7296    1.8400    0.4449 N.pl3     1 <0>        -0.4543
      4 C3         -2.5295    1.4295    1.4735 C.2       1 <0>        -0.0132
      5 C4         -3.0430    0.2222    1.1108 C.2       1 <0>         0.0608
      6 N2         -2.5564   -0.0786   -0.1119 N.2       1 <0>        -0.4696
      7 C5         -1.7777    0.8868   -0.5119 C.2       1 <0>         0.1977
      8 C6         -3.9665   -0.6096    1.9114 C.2       1 <0>        -0.0095
      9 C7         -4.5022   -1.8182    1.6011 C.2       1 <0>        -0.1362
     10 C8         -5.3696   -2.4566    2.5073 C.ar      1 <0>         0.1666
     11 C9         -5.6140   -1.7527    3.7067 C.ar      1 <0>        -0.2097
     12 S1         -4.6463   -0.2766    3.5276 S.3       1 <0>         0.1037
     13 C10        -6.4441   -2.2552    4.6914 C.ar      1 <0>         0.2125
     14 C11        -7.0448   -3.4935    4.4700 C.ar      1 <0>        -0.2415
     15 C12        -6.7790   -4.1510    3.2810 C.ar      1 <0>         0.1596
     16 N3         -5.9883   -3.6513    2.3649 N.ar      1 <0>        -0.4771
     17 O1         -6.6670   -1.5643    5.8385 O.3       1 <0>        -0.2368
     18 C13        -7.5496   -2.0820    6.7344 C.ar      1 <0>         0.0340
     19 C14        -8.8499   -1.6022    6.7831 C.ar      1 <0>        -0.0678
     20 C15        -9.7469   -2.1273    7.6925 C.ar      1 <0>        -0.1320
     21 C16        -9.3475   -3.1360    8.5593 C.ar      1 <0>         0.1767
     22 C17        -8.0460   -3.6171    8.5115 C.ar      1 <0>        -0.1390
     23 C18        -7.1501   -3.0954    7.5968 C.ar      1 <0>         0.1168
     24 F1         -5.8850   -3.5667    7.5456 F         1 <0>        -0.1185
     25 N4        -10.2575   -3.6676    9.4822 N.am      1 <0>        -0.6729
     26 C19        -9.8664   -3.9153   10.7480 C.2       1 <0>         0.5590
     27 O2         -8.7006   -3.7894   11.0582 O.2       1 <0>        -0.4880
     28 C20       -10.8777   -4.3486   11.7779 C.3       1 <0>        -0.2077
     29 C21       -11.6249   -3.2520   12.5393 C.3       1 <0>        -0.1307
     30 C22       -10.5495   -4.0782   13.2476 C.3       1 <0>        -0.1039
     31 C23       -11.6343   -5.6112   11.4547 C.2       1 <0>         0.5565
     32 O3        -11.6231   -6.5411   12.2334 O.2       1 <0>        -0.4909
     33 N5        -12.3234   -5.7072   10.3005 N.am      1 <0>        -0.6710
     34 C24       -13.1389   -6.8192   10.0628 C.ar      1 <0>         0.1382
     35 C25       -13.8649   -7.3846   11.1029 C.ar      1 <0>        -0.1156
     36 C26       -14.6688   -8.4822   10.8651 C.ar      1 <0>        -0.0994
     37 C27       -14.7512   -9.0181    9.5930 C.ar      1 <0>        -0.1280
     38 C28       -14.0293   -8.4576    8.5553 C.ar      1 <0>        -0.0994
     39 C29       -13.2283   -7.3562    8.7853 C.ar      1 <0>        -0.1406
     40 H1         -1.2580    5.1149   -0.2815 H         1 <0>         0.0805
     41 H2         -2.1170    3.8907   -1.2467 H         1 <0>         0.0659
     42 H3         -2.7208    4.3356    0.3675 H         1 <0>         0.0646
     43 H4         -0.0710    2.9387   -0.2190 H         1 <0>         0.1000
     44 H5         -0.6748    3.3837    1.3952 H         1 <0>         0.0960
     45 H6         -2.7175    1.9596    2.3954 H         1 <0>         0.1811
     46 H7         -1.2530    0.9187   -1.4554 H         1 <0>         0.2127
     47 H8         -4.2630   -2.2893    0.6592 H         1 <0>         0.1549
     48 H9         -7.7013   -3.9296    5.2083 H         1 <0>         0.1458
     49 H10        -7.2408   -5.1108    3.1025 H         1 <0>         0.1665
     50 H11        -9.1611   -0.8173    6.1098 H         1 <0>         0.1526
     51 H12       -10.7593   -1.7531    7.7297 H         1 <0>         0.1478
     52 H13        -7.7348   -4.4014    9.1857 H         1 <0>         0.1557
     53 H14       -11.1690   -3.8575    9.2102 H         1 <0>         0.4073
     54 H15       -11.3851   -2.2170   12.2954 H         1 <0>         0.1159
     55 H16       -12.6641   -3.4435   12.8066 H         1 <0>         0.1161
     56 H17       -10.8812   -4.8134   13.9808 H         1 <0>         0.1218
     57 H18        -9.6022   -3.5869   13.4696 H         1 <0>         0.1209
     58 H19       -12.2541   -5.0054    9.6344 H         1 <0>         0.4001
     59 H20       -13.8006   -6.9668   12.0967 H         1 <0>         0.1297
     60 H21       -15.2333   -8.9227   11.6736 H         1 <0>         0.1285
     61 H22       -15.3806   -9.8764    9.4096 H         1 <0>         0.1264
     62 H23       -14.0955   -8.8786    7.5630 H         1 <0>         0.1291
     63 H24       -12.6687   -6.9157    7.9733 H         1 <0>         0.1258
@<TRIPOS>BOND
     1    1    2 1
     2    1   40 1
     3    1   41 1
     4    1   42 1
     5    2    3 1
     6    2   43 1
     7    2   44 1
     8    3    7 1
     9    3    4 1
    10    4    5 2
    11    4   45 1
    12    5    6 1
    13    5    8 1
    14    6    7 2
    15    7   46 1
    16    8   12 1
    17    8    9 2
    18    9   10 1
    19    9   47 1
    20   10   16 ar
    21   10   11 ar
    22   11   12 1
    23   11   13 ar
    24   13   14 ar
    25   13   17 1
    26   14   15 ar
    27   14   48 1
    28   15   16 ar
    29   15   49 1
    30   17   18 1
    31   18   23 ar
    32   18   19 ar
    33   19   20 ar
    34   19   50 1
    35   20   21 ar
    36   20   51 1
    37   21   22 ar
    38   21   25 1
    39   22   23 ar
    40   22   52 1
    41   23   24 1
    42   25   26 am
    43   25   53 1
    44   26   27 2
    45   26   28 1
    46   28   30 1
    47   28   29 1
    48   28   31 1
    49   29   30 1
    50   29   54 1
    51   29   55 1
    52   30   56 1
    53   30   57 1
    54   31   32 2
    55   31   33 am
    56   33   34 1
    57   33   58 1
    58   34   39 ar
    59   34   35 ar
    60   35   36 ar
    61   35   59 1
    62   36   37 ar
    63   36   60 1
    64   37   38 ar
    65   37   61 1
    66   38   39 ar
    67   38   62 1
    68   39   63 1
@<TRIPOS>MOLECULE
CHEMBL565807__1
   64    69     0     0     0
SMALL
USER_CHARGES

@<TRIPOS>ATOM
      1 C1         -1.8271    4.1863   -0.2384 C.3       1 <0>        -0.1811
      2 C2         -0.9646    3.0881    0.3869 C.3       1 <0>         0.0871
      3 N1         -1.7296    1.8400    0.4449 N.pl3     1 <0>        -0.4024
      4 C3         -2.5295    1.4295    1.4735 C.2       1 <0>         0.0499
      5 C4         -3.0430    0.2222    1.1108 C.2       1 <0>         0.1226
      6 N2         -2.5564   -0.0786   -0.1119 N.pl3     1 <0>        -0.4723
      7 C5         -1.7777    0.8868   -0.5119 C.cat     1 <0>         0.3048
      8 C6         -3.9665   -0.6096    1.9114 C.2       1 <0>        -0.1184
      9 C7         -4.5022   -1.8182    1.6011 C.2       1 <0>        -0.0840
     10 C8         -5.3696   -2.4566    2.5073 C.ar      1 <0>         0.1399
     11 C9         -5.6140   -1.7527    3.7067 C.ar      1 <0>        -0.1944
     12 S1         -4.6463   -0.2766    3.5276 S.3       1 <0>         0.1719
     13 C10        -6.4441   -2.2552    4.6914 C.ar      1 <0>         0.2110
     14 C11        -7.0448   -3.4935    4.4700 C.ar      1 <0>        -0.2152
     15 C12        -6.7790   -4.1510    3.2810 C.ar      1 <0>         0.1677
     16 N3         -5.9883   -3.6513    2.3649 N.ar      1 <0>        -0.4682
     17 O1         -6.6670   -1.5643    5.8385 O.3       1 <0>        -0.2326
     18 C13        -7.5496   -2.0820    6.7344 C.ar      1 <0>         0.0198
     19 C14        -8.8499   -1.6022    6.7831 C.ar      1 <0>        -0.0640
     20 C15        -9.7469   -2.1273    7.6925 C.ar      1 <0>        -0.1318
     21 C16        -9.3475   -3.1360    8.5593 C.ar      1 <0>         0.1872
     22 C17        -8.0460   -3.6171    8.5115 C.ar      1 <0>        -0.1391
     23 C18        -7.1501   -3.0954    7.5968 C.ar      1 <0>         0.1191
     24 F1         -5.8850   -3.5667    7.5456 F         1 <0>        -0.1193
     25 N4        -10.2575   -3.6676    9.4822 N.am      1 <0>        -0.6749
     26 C19        -9.8664   -3.9153   10.7480 C.2       1 <0>         0.5611
     27 O2         -8.7006   -3.7894   11.0582 O.2       1 <0>        -0.4873
     28 C20       -10.8777   -4.3486   11.7779 C.3       1 <0>        -0.2091
     29 C21       -11.6249   -3.2520   12.5393 C.3       1 <0>        -0.1301
     30 C22       -10.5495   -4.0782   13.2476 C.3       1 <0>        -0.1031
     31 C23       -11.6343   -5.6112   11.4547 C.2       1 <0>         0.5552
     32 O3        -11.6231   -6.5411   12.2334 O.2       1 <0>        -0.4881
     33 N5        -12.3234   -5.7072   10.3005 N.am      1 <0>        -0.6709
     34 C24       -13.1389   -6.8192   10.0628 C.ar      1 <0>         0.1364
     35 C25       -13.8649   -7.3846   11.1029 C.ar      1 <0>        -0.1149
     36 C26       -14.6688   -8.4822   10.8651 C.ar      1 <0>        -0.0980
     37 C27       -14.7512   -9.0181    9.5930 C.ar      1 <0>        -0.1265
     38 C28       -14.0293   -8.4576    8.5553 C.ar      1 <0>        -0.0998
     39 C29       -13.2283   -7.3562    8.7853 C.ar      1 <0>        -0.1415
     40 H1         -1.2580    5.1149   -0.2815 H         1 <0>         0.1023
     41 H2         -2.1170    3.8907   -1.2467 H         1 <0>         0.0731
     42 H3         -2.7208    4.3356    0.3675 H         1 <0>         0.0747
     43 H4         -0.0710    2.9387   -0.2190 H         1 <0>         0.1256
     44 H5         -0.6748    3.3837    1.3952 H         1 <0>         0.1267
     45 H6         -2.7175    1.9596    2.3954 H         1 <0>         0.2268
     46 H7         -1.2530    0.9187   -1.4554 H         1 <0>         0.2672
     47 H8         -4.2630   -2.2893    0.6592 H         1 <0>         0.1501
     48 H9         -7.7013   -3.9296    5.2083 H         1 <0>         0.1558
     49 H10        -7.2408   -5.1108    3.1025 H         1 <0>         0.1764
     50 H11        -9.1611   -0.8173    6.1098 H         1 <0>         0.1530
     51 H12       -10.7593   -1.7531    7.7297 H         1 <0>         0.1510
     52 H13        -7.7348   -4.4014    9.1857 H         1 <0>         0.1587
     53 H14       -11.1690   -3.8575    9.2102 H         1 <0>         0.4094
     54 H15       -11.3851   -2.2170   12.2954 H         1 <0>         0.1158
     55 H16       -12.6641   -3.4435   12.8066 H         1 <0>         0.1174
     56 H17       -10.8812   -4.8134   13.9808 H         1 <0>         0.1232
     57 H18        -9.6022   -3.5869   13.4696 H         1 <0>         0.1211
     58 H19       -12.2541   -5.0054    9.6344 H         1 <0>         0.3986
     59 H20       -13.8006   -6.9668   12.0967 H         1 <0>         0.1301
     60 H21       -15.2333   -8.9227   11.6736 H         1 <0>         0.1297
     61 H22       -15.3806   -9.8764    9.4096 H         1 <0>         0.1274
     62 H23       -14.0955   -8.8786    7.5630 H         1 <0>         0.1290
     63 H24       -12.6687   -6.9157    7.9733 H         1 <0>         0.1243
     64 H25        -2.7569   -0.8838   -0.6143 H         1 <0>         0.4656
@<TRIPOS>BOND
     1    1    2 1
     2    1   40 1
     3    1   41 1
     4    1   42 1
     5    2    3 1
     6    2   43 1
     7    2   44 1
     8    3    7 1
     9    3    4 1
    10    4    5 2
    11    4   45 1
    12    5    6 1
    13    5    8 1
    14    6    7 2
    15    6   64 1
    16    7   46 1
    17    8   12 1
    18    8    9 2
    19    9   10 1
    20    9   47 1
    21   10   16 ar
    22   10   11 ar
    23   11   12 1
    24   11   13 ar
    25   13   14 ar
    26   13   17 1
    27   14   15 ar
    28   14   48 1
    29   15   16 ar
    30   15   49 1
    31   17   18 1
    32   18   23 ar
    33   18   19 ar
    34   19   20 ar
    35   19   50 1
    36   20   21 ar
    37   20   51 1
    38   21   22 ar
    39   21   25 1
    40   22   23 ar
    41   22   52 1
    42   23   24 1
    43   25   26 am
    44   25   53 1
    45   26   27 2
    46   26   28 1
    47   28   30 1
    48   28   29 1
    49   28   31 1
    50   29   30 1
    51   29   54 1
    52   29   55 1
    53   30   56 1
    54   30   57 1
    55   31   32 2
    56   31   33 am
    57   33   34 1
    58   33   58 1
    59   34   39 ar
    60   34   35 ar
    61   35   36 ar
    62   35   59 1
    63   36   37 ar
    64   36   60 1
    65   37   38 ar
    66   37   61 1
    67   38   39 ar
    68   38   62 1
    69   39   63 1
@<TRIPOS>MOLECULE
CHEMBL233208
   63    66     0     0     0
SMALL
USER_CHARGES

@<TRIPOS>ATOM
      1 C1          0.4517    0.5924    0.6152 C.3       1 <0>        -0.1803
      2 C2          0.2492   -0.9003    0.3469 C.3       1 <0>         0.1118
      3 C3          0.8794   -1.7122    1.4803 C.3       1 <0>        -0.1741
      4 C4         -1.2255   -1.2018    0.2727 C.ar      1 <0>        -0.1128
      5 C5         -2.1220   -0.4395    0.9999 C.ar      1 <0>        -0.0950
      6 C6         -3.4736   -0.7108    0.9355 C.ar      1 <0>        -0.0542
      7 C7         -3.9347   -1.7551    0.1357 C.ar      1 <0>        -0.0374
      8 C8         -3.0267   -2.5198   -0.5948 C.ar      1 <0>        -0.0714
      9 C9         -1.6779   -2.2360   -0.5267 C.ar      1 <0>        -0.1312
     10 C10        -5.3859   -2.0518    0.0627 C.ar      1 <0>         0.2669
     11 C11        -5.9590   -2.5042   -1.1300 C.ar      1 <0>        -0.1891
     12 C12        -7.3180   -2.7684   -1.1494 C.ar      1 <0>         0.2181
     13 N1         -8.0285   -2.5865   -0.0474 N.ar      1 <0>        -0.5383
     14 C13        -7.4583   -2.1568    1.0688 C.ar      1 <0>         0.5703
     15 N2         -6.1620   -1.8970    1.1328 N.ar      1 <0>        -0.5387
     16 N3         -8.2388   -1.9792    2.2002 N.pl3     1 <0>        -0.6351
     17 C14        -9.5835   -2.3617    2.1889 C.ar      1 <0>         0.1751
     18 C15        -9.9695   -3.5298    1.5438 C.ar      1 <0>        -0.1065
     19 C16       -11.2986   -3.9047    1.5345 C.ar      1 <0>        -0.0868
     20 C17       -12.2448   -3.1188    2.1664 C.ar      1 <0>        -0.1185
     21 C18       -11.8639   -1.9553    2.8095 C.ar      1 <0>        -0.0849
     22 C19       -10.5357   -1.5776    2.8275 C.ar      1 <0>        -0.1367
     23 C20       -13.6943   -3.5308    2.1538 C.3       1 <0>        -0.0977
     24 C21       -13.9849   -4.4114    3.3708 C.3       1 <0>        -0.0022
     25 N4        -15.3978   -4.8131    3.3584 N.4       1 <0>        -0.3955
     26 C22       -15.6548   -5.7477    2.2330 C.3       1 <0>        -0.0079
     27 C23       -16.9428   -6.4876    2.6736 C.3       1 <0>        -0.1462
     28 C24       -16.7428   -6.6521    4.1977 C.3       1 <0>        -0.1459
     29 C25       -15.7251   -5.5647    4.5895 C.3       1 <0>        -0.0083
     30 Cl1        -4.9898   -2.7285   -2.5526 Cl        1 <0>        -0.0259
     31 N5          0.8872   -1.2599   -0.9265 N.4       1 <0>        -0.6353
     32 H1          1.5183    0.8105    0.6688 H         1 <0>         0.0903
     33 H2          0.0028    1.1708   -0.1923 H         1 <0>         0.0870
     34 H3         -0.0217    0.8592    1.5600 H         1 <0>         0.1097
     35 H4          0.4060   -1.4454    2.4252 H         1 <0>         0.1081
     36 H5          0.7351   -2.7756    1.2892 H         1 <0>         0.0843
     37 H6          1.9460   -1.4941    1.5339 H         1 <0>         0.0895
     38 H7         -1.7635    0.3691    1.6195 H         1 <0>         0.1440
     39 H8         -4.1726   -0.1153    1.5039 H         1 <0>         0.1439
     40 H9         -3.3784   -3.3304   -1.2158 H         1 <0>         0.1486
     41 H10        -0.9738   -2.8250   -1.0958 H         1 <0>         0.1259
     42 H11        -7.7932   -3.1188   -2.0537 H         1 <0>         0.1879
     43 H12        -7.8522   -1.5895    2.9999 H         1 <0>         0.4298
     44 H13        -9.2311   -4.1439    1.0498 H         1 <0>         0.1321
     45 H14       -11.5994   -4.8126    1.0329 H         1 <0>         0.1283
     46 H15       -12.6054   -1.3435    3.3018 H         1 <0>         0.1309
     47 H16       -10.2382   -0.6711    3.3338 H         1 <0>         0.1329
     48 H17       -14.3249   -2.6425    2.1892 H         1 <0>         0.0950
     49 H18       -13.9052   -4.0899    1.2421 H         1 <0>         0.0945
     50 H19       -13.3543   -5.2998    3.3353 H         1 <0>         0.1297
     51 H20       -13.7740   -3.8523    4.2824 H         1 <0>         0.1304
     52 H21       -15.8246   -5.1977    1.3073 H         1 <0>         0.1354
     53 H22       -14.8282   -6.4490    2.1189 H         1 <0>         0.1332
     54 H23       -17.8256   -5.8837    2.4634 H         1 <0>         0.0986
     55 H24       -17.0146   -7.4602    2.1868 H         1 <0>         0.1167
     56 H25       -17.6853   -6.4947    4.7222 H         1 <0>         0.1058
     57 H26       -16.3445   -7.6415    4.4224 H         1 <0>         0.1036
     58 H27       -14.8243   -6.0272    4.9927 H         1 <0>         0.1298
     59 H28       -16.1641   -4.8942    5.3283 H         1 <0>         0.1323
     60 H29         1.8746   -1.0580   -0.8768 H         1 <0>         0.4389
     61 H30         0.7537   -2.2442   -1.1034 H         1 <0>         0.4326
     62 H31       -15.9904   -4.0002    3.2792 H         1 <0>         0.4270
     63 H32         0.4716   -0.7244   -1.6739 H         1 <0>         0.4370
@<TRIPOS>BOND
     1    1    2 1
     2    1   32 1
     3    1   33 1
     4    1   34 1
     5    2    3 1
     6    2    4 1
     7    2   31 1
     8    3   35 1
     9    3   36 1
    10    3   37 1
    11    4    9 ar
    12    4    5 ar
    13    5    6 ar
    14    5   38 1
    15    6    7 ar
    16    6   39 1
    17    7    8 ar
    18    7   10 1
    19    8    9 ar
    20    8   40 1
    21    9   41 1
    22   10   15 ar
    23   10   11 ar
    24   11   12 ar
    25   11   30 1
    26   12   13 ar
    27   12   42 1
    28   13   14 ar
    29   14   15 ar
    30   14   16 1
    31   16   17 1
    32   16   43 1
    33   17   22 ar
    34   17   18 ar
    35   18   19 ar
    36   18   44 1
    37   19   20 ar
    38   19   45 1
    39   20   21 ar
    40   20   23 1
    41   21   22 ar
    42   21   46 1
    43   22   47 1
    44   23   24 1
    45   23   48 1
    46   23   49 1
    47   24   25 1
    48   24   50 1
    49   24   51 1
    50   25   29 1
    51   25   26 1
    52   25   62 1
    53   26   27 1
    54   26   52 1
    55   26   53 1
    56   27   28 1
    57   27   54 1
    58   27   55 1
    59   28   29 1
    60   28   56 1
    61   28   57 1
    62   29   58 1
    63   29   59 1
    64   31   60 1
    65   31   61 1
    66   31   63 1
@<TRIPOS>MOLECULE
CHEMBL191594
   67    70     0     0     0
SMALL
USER_CHARGES

@<TRIPOS>ATOM
      1 C1          0.5896    0.4889    0.7162 C.3       1 <0>        -0.1483
      2 C2          0.1521   -0.9157    0.2962 C.3       1 <0>        -0.0311
      3 C3          0.5811   -1.9242    1.3638 C.3       1 <0>        -0.1464
      4 C4         -1.3470   -0.9509    0.1455 C.2       1 <0>        -0.0918
      5 C5         -2.2908   -0.7700    1.1630 C.2       1 <0>         0.0895
      6 C6         -3.5312   -0.8780    0.6060 C.2       1 <0>         0.0644
      7 N1         -3.3979   -1.1192   -0.7191 N.pl3     1 <0>        -0.2305
      8 C7         -2.0509   -1.1619   -1.0244 C.2       1 <0>        -0.0842
      9 C8         -1.6698   -1.3975   -2.3653 C.2       1 <0>         0.5312
     10 N2         -2.6079   -1.5656   -3.2830 N.2       1 <0>        -0.6155
     11 C9         -3.9025   -1.5183   -2.9744 C.2       1 <0>         0.3247
     12 N3         -4.3216   -1.3136   -1.7557 N.2       1 <0>        -0.3320
     13 N4         -0.3340   -1.4510   -2.7132 N.pl3     1 <0>        -0.6119
     14 C10         0.0371   -1.8210   -4.0120 C.ar      1 <0>         0.0969
     15 C11        -0.9069   -2.3439   -4.8783 C.ar      1 <0>        -0.0655
     16 C12        -0.5335   -2.7114   -6.1731 C.ar      1 <0>        -0.1522
     17 C13         0.7931   -2.5484   -6.5863 C.ar      1 <0>         0.1840
     18 C14         1.7283   -2.0252   -5.7134 C.ar      1 <0>        -0.1729
     19 C15         1.3549   -1.6569   -4.4327 C.ar      1 <0>         0.1303
     20 F1          2.2726   -1.1409   -3.5861 F         1 <0>        -0.1216
     21 F2          1.1598   -2.9026   -7.8374 F         1 <0>        -0.0984
     22 C16        -1.5350   -3.2701   -7.1020 C.2       1 <0>         0.5739
     23 O1         -1.2077   -3.5893   -8.2287 O.2       1 <0>        -0.4953
     24 N5         -2.8123   -3.4265   -6.7015 N.am      1 <0>        -0.5942
     25 O2         -3.7732   -3.9626   -7.5928 O.3       1 <0>        -0.1360
     26 C17        -5.0848   -4.0722   -7.0362 C.3       1 <0>        -0.0037
     27 N6         -2.0102   -0.5215    2.5184 N.am      1 <0>        -0.6093
     28 C18        -3.0195   -0.3660    3.3980 C.2       1 <0>         0.6503
     29 O3         -4.1719   -0.4406    3.0198 O.2       1 <0>        -0.5506
     30 O4         -2.7508   -0.1281    4.6959 O.3       1 <0>        -0.3463
     31 C19        -3.8690    0.0262    5.5722 C.3       1 <0>         0.0962
     32 C20        -4.2703    1.5027    5.6351 C.3       1 <0>        -0.1707
     33 C21        -5.4161    1.6721    6.6352 C.3       1 <0>        -0.0011
     34 N7         -4.9808    1.2248    7.9637 N.4       1 <0>        -0.3882
     35 C22        -4.6627   -0.2077    7.9275 C.3       1 <0>        -0.0010
     36 C23        -3.4880   -0.4493    6.9772 C.3       1 <0>        -0.1472
     37 C24        -6.0569    1.4616    8.9353 C.3       1 <0>        -0.0476
     38 H1          1.6738    0.5143    0.8252 H         1 <0>         0.0722
     39 H2          0.2839    1.2073   -0.0444 H         1 <0>         0.0628
     40 H3          0.1227    0.7457    1.6671 H         1 <0>         0.0554
     41 H4          0.6189   -1.1726   -0.6547 H         1 <0>         0.0714
     42 H5          0.1142   -1.6673    2.3147 H         1 <0>         0.0525
     43 H6          0.2694   -2.9249    1.0646 H         1 <0>         0.0645
     44 H7          1.6653   -1.8987    1.4728 H         1 <0>         0.0728
     45 H8         -4.4676   -0.7863    1.1363 H         1 <0>         0.2071
     46 H9         -4.6308   -1.6616   -3.7589 H         1 <0>         0.2252
     47 H10         0.3470   -1.2324   -2.0579 H         1 <0>         0.4288
     48 H11        -1.9296   -2.4678   -4.5540 H         1 <0>         0.2038
     49 H12         2.7523   -1.9000   -6.0328 H         1 <0>         0.1684
     50 H13        -3.0734   -3.1718   -5.8027 H         1 <0>         0.4062
     51 H14        -5.7617   -4.4908   -7.7810 H         1 <0>         0.1175
     52 H15        -5.0559   -4.7250   -6.1638 H         1 <0>         0.0574
     53 H16        -5.4373   -3.0844   -6.7394 H         1 <0>         0.0584
     54 H17        -1.0903   -0.4620    2.8203 H         1 <0>         0.4232
     55 H18        -4.7065   -0.5649    5.2019 H         1 <0>         0.1071
     56 H19        -3.4160    2.0988    5.9560 H         1 <0>         0.1001
     57 H20        -4.5961    1.8337    4.6490 H         1 <0>         0.1203
     58 H21        -5.7044    2.7222    6.6822 H         1 <0>         0.1390
     59 H22        -6.2699    1.0759    6.3132 H         1 <0>         0.1340
     60 H23        -4.3949   -0.5453    8.9287 H         1 <0>         0.1421
     61 H24        -5.5326   -0.7638    7.5780 H         1 <0>         0.1339
     62 H25        -3.2546   -1.5137    6.9504 H         1 <0>         0.1234
     63 H26        -2.6175    0.1062    7.3259 H         1 <0>         0.1028
     64 H27        -6.9450    0.9047    8.6368 H         1 <0>         0.1234
     65 H28        -5.7347    1.1298    9.9223 H         1 <0>         0.1262
     66 H29        -6.2893    2.5260    8.9678 H         1 <0>         0.1259
     67 H30        -4.1607    1.7435    8.2401 H         1 <0>         0.4267
@<TRIPOS>BOND
     1    1    2 1
     2    1   38 1
     3    1   39 1
     4    1   40 1
     5    2    3 1
     6    2    4 1
     7    2   41 1
     8    3   42 1
     9    3   43 1
    10    3   44 1
    11    4    8 2
    12    4    5 1
    13    5    6 2
    14    5   27 1
    15    6    7 1
    16    6   45 1
    17    7   12 1
    18    7    8 1
    19    8    9 1
    20    9   10 2
    21    9   13 1
    22   10   11 1
    23   11   12 2
    24   11   46 1
    25   13   14 1
    26   13   47 1
    27   14   19 ar
    28   14   15 ar
    29   15   16 ar
    30   15   48 1
    31   16   17 ar
    32   16   22 1
    33   17   18 ar
    34   17   21 1
    35   18   19 ar
    36   18   49 1
    37   19   20 1
    38   22   23 2
    39   22   24 am
    40   24   25 1
    41   24   50 1
    42   25   26 1
    43   26   51 1
    44   26   52 1
    45   26   53 1
    46   27   28 am
    47   27   54 1
    48   28   29 2
    49   28   30 1
    50   30   31 1
    51   31   36 1
    52   31   32 1
    53   31   55 1
    54   32   33 1
    55   32   56 1
    56   32   57 1
    57   33   34 1
    58   33   58 1
    59   33   59 1
    60   34   35 1
    61   34   37 1
    62   34   67 1
    63   35   36 1
    64   35   60 1
    65   35   61 1
    66   36   62 1
    67   36   63 1
    68   37   64 1
    69   37   65 1
    70   37   66 1
@<TRIPOS>MOLECULE
CHEMBL234452
   51    54     0     0     0
SMALL
USER_CHARGES

@<TRIPOS>ATOM
      1 C1         -0.1024    1.3086   -0.0222 C.3       1 <0>        -0.0531
      2 N1         -0.1961   -0.1558    0.0459 N.4       1 <0>        -0.3880
      3 C2          0.4058   -0.7416   -1.1593 C.3       1 <0>        -0.0473
      4 C3          0.5200   -0.6375    1.2346 C.3       1 <0>        -0.0090
      5 C4         -0.1825   -0.1279    2.4947 C.3       1 <0>        -0.0956
      6 C5          0.5522   -0.6221    3.7141 C.ar      1 <0>        -0.1323
      7 C6          0.2064   -1.8337    4.2840 C.ar      1 <0>        -0.0852
      8 C7          0.8774   -2.2893    5.4018 C.ar      1 <0>        -0.1136
      9 C8          1.9008   -1.5293    5.9534 C.ar      1 <0>         0.1891
     10 C9          2.2460   -0.3130    5.3782 C.ar      1 <0>        -0.1474
     11 C10         1.5744    0.1343    4.2574 C.ar      1 <0>        -0.0837
     12 N2          2.5818   -1.9873    7.0852 N.pl3     1 <0>        -0.6372
     13 C11         2.7792   -3.3463    7.2725 C.ar      1 <0>         0.5609
     14 N3          2.4138   -4.1889    6.3173 N.ar      1 <0>        -0.5531
     15 C12         2.5851   -5.4951    6.4568 C.ar      1 <0>         0.2050
     16 C13         3.1545   -5.9826    7.6187 C.ar      1 <0>        -0.1906
     17 C14         3.5310   -5.0686    8.6110 C.ar      1 <0>         0.3282
     18 N4          3.3327   -3.7679    8.3983 N.ar      1 <0>        -0.5368
     19 C15         4.1436   -5.5388    9.8721 C.2       1 <0>        -0.1692
     20 C16         5.1638   -6.4262    9.9970 C.2       1 <0>         0.1215
     21 N5          5.4545   -6.6114   11.3142 N.pl3     1 <0>        -0.5798
     22 H1          6.1474   -7.2004   11.6517 H         1 <0>         0.4240
     23 C17         4.6231   -5.8413   12.0992 C.ar      1 <0>         0.0900
     24 C18         3.7706   -5.1312   11.2370 C.ar      1 <0>        -0.0682
     25 C19         2.8178   -4.2592   11.7599 C.ar      1 <0>        -0.0698
     26 C20         2.7194   -4.0952   13.1240 C.ar      1 <0>        -0.1358
     27 C21         3.5635   -4.7927   13.9762 C.ar      1 <0>        -0.0966
     28 C22         4.5043   -5.6651   13.4738 C.ar      1 <0>        -0.1225
     29 Cl1         3.3965   -7.6870    7.8426 Cl        1 <0>        -0.0322
     30 H2          0.9451    1.6032   -0.0850 H         1 <0>         0.1222
     31 H3         -0.6338    1.6661   -0.9042 H         1 <0>         0.1240
     32 H4         -0.5491    1.7433    0.8721 H         1 <0>         0.1248
     33 H5          1.4534   -0.4470   -1.2220 H         1 <0>         0.1214
     34 H6          0.3363   -1.8282   -1.1087 H         1 <0>         0.1233
     35 H7         -0.1256   -0.3841   -2.0413 H         1 <0>         0.1241
     36 H8          0.5267   -1.7275    1.2379 H         1 <0>         0.1321
     37 H9          1.5453   -0.2680    1.2157 H         1 <0>         0.1304
     38 H10        -0.1891    0.9620    2.4914 H         1 <0>         0.0933
     39 H11        -1.2078   -0.4975    2.5136 H         1 <0>         0.0934
     40 H12        -0.5895   -2.4242    3.8547 H         1 <0>         0.1262
     41 H13         0.6063   -3.2353    5.8469 H         1 <0>         0.1411
     42 H14         3.0410    0.2805    5.8048 H         1 <0>         0.1312
     43 H15         1.8450    1.0781    3.8073 H         1 <0>         0.1267
     44 H16         2.9161   -1.3540    7.7395 H         1 <0>         0.4290
     45 H17         2.2829   -6.1720    5.6714 H         1 <0>         0.1811
     46 H18         5.6686   -6.9121    9.1751 H         1 <0>         0.1775
     47 H19         2.1599   -3.7143   11.0990 H         1 <0>         0.1194
     48 H20         1.9819   -3.4200   13.5322 H         1 <0>         0.1256
     49 H21         3.4774   -4.6559   15.0440 H         1 <0>         0.1297
     50 H22         5.1573   -6.2018   14.1460 H         1 <0>         0.1247
     51 H23        -1.1659   -0.4284    0.1040 H         1 <0>         0.4268
@<TRIPOS>BOND
     1    1    2 1
     2    1   30 1
     3    1   31 1
     4    1   32 1
     5    2    3 1
     6    2    4 1
     7    2   51 1
     8    3   33 1
     9    3   34 1
    10    3   35 1
    11    4    5 1
    12    4   36 1
    13    4   37 1
    14    5    6 1
    15    5   38 1
    16    5   39 1
    17    6   11 ar
    18    6    7 ar
    19    7    8 ar
    20    7   40 1
    21    8    9 ar
    22    8   41 1
    23    9   10 ar
    24    9   12 1
    25   10   11 ar
    26   10   42 1
    27   11   43 1
    28   12   13 1
    29   12   44 1
    30   13   18 ar
    31   13   14 ar
    32   14   15 ar
    33   15   16 ar
    34   15   45 1
    35   16   17 ar
    36   16   29 1
    37   17   18 ar
    38   17   19 1
    39   19   24 1
    40   19   20 2
    41   20   21 1
    42   20   46 1
    43   21   22 1
    44   21   23 1
    45   23   28 ar
    46   23   24 ar
    47   24   25 ar
    48   25   26 ar
    49   25   47 1
    50   26   27 ar
    51   26   48 1
    52   27   28 ar
    53   27   49 1
    54   28   50 1
@<TRIPOS>MOLECULE
CHEMBL224547
   61    66     0     0     0
SMALL
USER_CHARGES

@<TRIPOS>ATOM
      1 C1         -0.0381    1.4645   -0.0016 C.3       1 <0>        -0.0472
      2 N1         -0.0078   -0.0042   -0.0037 N.4       1 <0>        -0.3842
      3 C2         -1.3824   -0.5204   -0.0142 C.3       1 <0>        -0.0233
      4 C3         -1.3525   -2.0478   -0.1320 C.3       1 <0>         0.0979
      5 N2         -0.5114   -2.5826    0.9500 N.pl3     1 <0>        -0.6420
      6 C4          0.8285   -2.0045    1.1366 C.3       1 <0>         0.0976
      7 C5          0.6956   -0.4792    1.1946 C.3       1 <0>        -0.0230
      8 C6         -0.9716   -3.6089    1.7762 C.ar      1 <0>         0.2125
      9 C7         -2.2802   -4.0641    1.6572 C.ar      1 <0>        -0.1851
     10 C8         -2.7393   -5.0763    2.4706 C.ar      1 <0>        -0.0435
     11 C9         -1.8888   -5.6503    3.4204 C.ar      1 <0>        -0.0723
     12 C10        -0.5774   -5.1885    3.5333 C.ar      1 <0>        -0.0211
     13 C11        -0.1200   -4.1811    2.7155 C.ar      1 <0>        -0.1671
     14 C12         0.0798   -5.9916    4.6291 C.3       1 <0>        -0.0098
     15 C13        -0.9764   -6.9486    5.1261 C.2       1 <0>        -0.2288
     16 C14        -2.1124   -6.7300    4.4068 C.2       1 <0>         0.1054
     17 N3         -3.0589   -7.6023    4.8670 N.pl3     1 <0>        -0.4545
     18 H1         -3.9698   -7.6786    4.5426 H         1 <0>         0.4421
     19 N4         -2.4823   -8.3666    5.8885 N.2       1 <0>        -0.2540
     20 C15        -1.2347   -7.9772    6.0461 C.2       1 <0>         0.1625
     21 C16        -0.2672   -8.5309    7.0272 C.2       1 <0>        -0.0530
     22 C17        -0.6924   -8.9561    8.2760 C.2       1 <0>        -0.1002
     23 C18         0.2337   -9.4602    9.1490 C.2       1 <0>        -0.0563
     24 S1          1.7440   -9.3401    8.2054 S.3       1 <0>         0.1151
     25 C19         1.0609   -8.6366    6.7140 C.2       1 <0>        -0.1443
     26 C20         0.0405   -9.9560   10.4785 C.1       1 <0>        -0.0721
     27 C21        -0.1179  -10.3625   11.5684 C.1       1 <0>        -0.1276
     28 C22        -0.3165  -10.8721   12.9350 C.3       1 <0>         0.1774
     29 O1          0.9377  -11.2981   13.4715 O.3       1 <0>        -0.3105
     30 C23         0.9301  -11.7991   14.7348 C.ar      1 <0>         0.1266
     31 C24        -0.2607  -11.8843   15.4413 C.ar      1 <0>        -0.2101
     32 C25        -0.2658  -12.3944   16.7252 C.ar      1 <0>        -0.0793
     33 C26         0.9147  -12.8193   17.3061 C.ar      1 <0>        -0.1550
     34 C27         2.1030  -12.7350   16.6042 C.ar      1 <0>        -0.0790
     35 C28         2.1124  -12.2314   15.3178 C.ar      1 <0>        -0.1489
     36 H2          0.9818    1.8490   -0.0019 H         1 <0>         0.1257
     37 H3         -0.5601    1.8184   -0.8907 H         1 <0>         0.1254
     38 H4         -0.5587    1.8159    0.8893 H         1 <0>         0.1218
     39 H5         -1.8841   -0.2370    0.9110 H         1 <0>         0.1329
     40 H6         -1.9217   -0.1008   -0.8635 H         1 <0>         0.1418
     41 H7         -2.3643   -2.4423   -0.0384 H         1 <0>         0.1278
     42 H8         -0.9330   -2.3326   -1.0969 H         1 <0>         0.0902
     43 H9          1.2586   -2.3704    2.0690 H         1 <0>         0.1283
     44 H10         1.4682   -2.2850    0.2999 H         1 <0>         0.0901
     45 H11         1.6875   -0.0292    1.2360 H         1 <0>         0.1422
     46 H12         0.1310   -0.1970    2.0832 H         1 <0>         0.1330
     47 H13        -2.9391   -3.6219    0.9245 H         1 <0>         0.1294
     48 H14        -3.7565   -5.4265    2.3750 H         1 <0>         0.1293
     49 H15         0.8979   -3.8316    2.8059 H         1 <0>         0.1314
     50 H16         0.9311   -6.5442    4.2318 H         1 <0>         0.1023
     51 H17         0.4012   -5.3337    5.4366 H         1 <0>         0.1035
     52 H18        -1.7337   -8.8906    8.5550 H         1 <0>         0.1447
     53 H19         1.5663   -8.3630    5.7996 H         1 <0>         0.1947
     54 H20        -0.7297  -10.0814   13.5612 H         1 <0>         0.0957
     55 H21        -1.0068  -11.7153   12.9116 H         1 <0>         0.0950
     56 H22        -1.1830  -11.5519   14.9882 H         1 <0>         0.1291
     57 H23        -1.1926  -12.4610   17.2756 H         1 <0>         0.1270
     58 H24         0.9087  -13.2174   18.3101 H         1 <0>         0.1259
     59 H25         3.0238  -13.0672   17.0603 H         1 <0>         0.1315
     60 H26         3.0401  -12.1698   14.7683 H         1 <0>         0.1316
     61 H27         0.4768   -0.3282   -0.8272 H         1 <0>         0.4251
@<TRIPOS>BOND
     1    1    2 1
     2    1   36 1
     3    1   37 1
     4    1   38 1
     5    2    7 1
     6    2    3 1
     7    2   61 1
     8    3    4 1
     9    3   39 1
    10    3   40 1
    11    4    5 1
    12    4   41 1
    13    4   42 1
    14    5    6 1
    15    5    8 1
    16    6    7 1
    17    6   43 1
    18    6   44 1
    19    7   45 1
    20    7   46 1
    21    8   13 ar
    22    8    9 ar
    23    9   10 ar
    24    9   47 1
    25   10   11 ar
    26   10   48 1
    27   11   16 1
    28   11   12 ar
    29   12   13 ar
    30   12   14 1
    31   13   49 1
    32   14   15 1
    33   14   50 1
    34   14   51 1
    35   15   20 1
    36   15   16 2
    37   16   17 1
    38   17   18 1
    39   17   19 1
    40   19   20 2
    41   20   21 1
    42   21   25 2
    43   21   22 1
    44   22   23 2
    45   22   52 1
    46   23   24 1
    47   23   26 1
    48   24   25 1
    49   25   53 1
    50   26   27 3
    51   27   28 1
    52   28   29 1
    53   28   54 1
    54   28   55 1
    55   29   30 1
    56   30   35 ar
    57   30   31 ar
    58   31   32 ar
    59   31   56 1
    60   32   33 ar
    61   32   57 1
    62   33   34 ar
    63   33   58 1
    64   34   35 ar
    65   34   59 1
    66   35   60 1
@<TRIPOS>MOLECULE
CHEMBL224547__1
   61    66     0     0     0
SMALL
USER_CHARGES

@<TRIPOS>ATOM
      1 C1         -0.0382    1.4645   -0.0016 C.3       1 <0>        -0.0471
      2 N1         -0.0078   -0.0042   -0.0037 N.4       1 <0>        -0.3841
      3 C2         -1.3824   -0.5204   -0.0142 C.3       1 <0>        -0.0234
      4 C3         -1.3525   -2.0478   -0.1320 C.3       1 <0>         0.0981
      5 N2         -0.5114   -2.5826    0.9500 N.pl3     1 <0>        -0.6426
      6 C4          0.8284   -2.0045    1.1367 C.3       1 <0>         0.0981
      7 C5          0.6956   -0.4791    1.1946 C.3       1 <0>        -0.0230
      8 C6         -0.9718   -3.6092    1.7765 C.ar      1 <0>         0.2109
      9 C7         -2.2800   -4.0644    1.6576 C.ar      1 <0>        -0.1867
     10 C8         -2.7371   -5.0773    2.4719 C.ar      1 <0>        -0.0354
     11 C9         -1.8867   -5.6506    3.4202 C.ar      1 <0>        -0.0524
     12 C10        -0.5776   -5.1907    3.5347 C.ar      1 <0>        -0.0232
     13 C11        -0.1208   -4.1812    2.7151 C.ar      1 <0>        -0.1698
     14 C12         0.0957   -5.9854    4.6270 C.3       1 <0>        -0.0002
     15 C13        -0.9411   -6.9530    5.1412 C.2       1 <0>        -0.2393
     16 C14        -2.1185   -6.7363    4.4065 C.2       1 <0>         0.0962
     17 N3         -3.0344   -7.5779    4.8475 N.2       1 <0>        -0.2543
     18 H1         -2.9220   -9.0490    6.3713 H         1 <0>         0.4471
     19 N4         -2.4716   -8.3513    5.8700 N.pl3     1 <0>        -0.4590
     20 C15        -1.1788   -7.9513    6.0367 C.2       1 <0>         0.1752
     21 C16        -0.2107   -8.5014    7.0122 C.2       1 <0>        -0.0763
     22 C17        -0.0815   -9.8720    7.1859 C.2       1 <0>        -0.1224
     23 C18         0.8265  -10.3359    8.0984 C.2       1 <0>        -0.0468
     24 S1          1.5251   -8.8232    8.7379 S.3       1 <0>         0.1338
     25 C19         0.5808   -7.6678    7.7588 C.2       1 <0>        -0.1405
     26 C20         1.1367  -11.6888    8.4503 C.1       1 <0>        -0.0799
     27 C21         1.3910  -12.7981    8.7388 C.1       1 <0>        -0.1169
     28 C22         1.7099  -14.1888    9.1005 C.3       1 <0>         0.1755
     29 O1          2.7263  -14.1987   10.1049 O.3       1 <0>        -0.3105
     30 C23         3.1389  -15.4135   10.5533 C.ar      1 <0>         0.1256
     31 C24         2.5811  -16.5723   10.0330 C.ar      1 <0>        -0.2097
     32 C25         3.0026  -17.8059   10.4900 C.ar      1 <0>        -0.0790
     33 C26         3.9791  -17.8863   11.4656 C.ar      1 <0>        -0.1539
     34 C27         4.5362  -16.7328   11.9861 C.ar      1 <0>        -0.0789
     35 C28         4.1226  -15.4969   11.5279 C.ar      1 <0>        -0.1483
     36 H2          0.9818    1.8490   -0.0019 H         1 <0>         0.1252
     37 H3         -0.5601    1.8183   -0.8907 H         1 <0>         0.1251
     38 H4         -0.5587    1.8159    0.8893 H         1 <0>         0.1218
     39 H5         -1.8842   -0.2370    0.9110 H         1 <0>         0.1330
     40 H6         -1.9217   -0.1009   -0.8635 H         1 <0>         0.1414
     41 H7         -2.3643   -2.4423   -0.0384 H         1 <0>         0.1283
     42 H8         -0.9330   -2.3326   -1.0969 H         1 <0>         0.0894
     43 H9          1.2585   -2.3704    2.0690 H         1 <0>         0.1280
     44 H10         1.4682   -2.2849    0.2999 H         1 <0>         0.0891
     45 H11         1.6875   -0.0292    1.2360 H         1 <0>         0.1414
     46 H12         0.1310   -0.1970    2.0832 H         1 <0>         0.1329
     47 H13        -2.9396   -3.6226    0.9254 H         1 <0>         0.1290
     48 H14        -3.7541   -5.4282    2.3771 H         1 <0>         0.1329
     49 H15         0.8971   -3.8316    2.8050 H         1 <0>         0.1296
     50 H16         0.9491   -6.5299    4.2229 H         1 <0>         0.0980
     51 H17         0.4202   -5.3214    5.4281 H         1 <0>         0.0961
     52 H18        -0.6858  -10.5592    6.6123 H         1 <0>         0.1408
     53 H19         0.6217   -6.5885    7.7561 H         1 <0>         0.1971
     54 H20         0.8151  -14.6788    9.4843 H         1 <0>         0.0963
     55 H21         2.0657  -14.7212    8.2184 H         1 <0>         0.0961
     56 H22         1.8178  -16.5100    9.2714 H         1 <0>         0.1289
     57 H23         2.5687  -18.7083   10.0853 H         1 <0>         0.1274
     58 H24         4.3070  -18.8517   11.8219 H         1 <0>         0.1264
     59 H25         5.2986  -16.7983   12.7483 H         1 <0>         0.1320
     60 H26         4.5613  -14.5964   11.9316 H         1 <0>         0.1318
     61 H27         0.4768   -0.3282   -0.8272 H         1 <0>         0.4248
@<TRIPOS>BOND
     1    1    2 1
     2    1   36 1
     3    1   37 1
     4    1   38 1
     5    2    7 1
     6    2    3 1
     7    2   61 1
     8    3    4 1
     9    3   39 1
    10    3   40 1
    11    4    5 1
    12    4   41 1
    13    4   42 1
    14    5    6 1
    15    5    8 1
    16    6    7 1
    17    6   43 1
    18    6   44 1
    19    7   45 1
    20    7   46 1
    21    8   13 ar
    22    8    9 ar
    23    9   10 ar
    24    9   47 1
    25   10   11 ar
    26   10   48 1
    27   11   12 ar
    28   11   16 1
    29   12   13 ar
    30   12   14 1
    31   13   49 1
    32   14   50 1
    33   14   51 1
    34   14   15 1
    35   15   16 1
    36   15   20 2
    37   16   17 2
    38   17   19 1
    39   18   19 1
    40   19   20 1
    41   20   21 1
    42   21   25 2
    43   21   22 1
    44   22   23 2
    45   22   52 1
    46   23   24 1
    47   23   26 1
    48   24   25 1
    49   25   53 1
    50   26   27 3
    51   27   28 1
    52   28   29 1
    53   28   54 1
    54   28   55 1
    55   29   30 1
    56   30   35 ar
    57   30   31 ar
    58   31   32 ar
    59   31   56 1
    60   32   33 ar
    61   32   57 1
    62   33   34 ar
    63   33   58 1
    64   34   35 ar
    65   34   59 1
    66   35   60 1
@<TRIPOS>MOLECULE
CHEMBL390353
   67    72     0     0     0
SMALL
USER_CHARGES

@<TRIPOS>ATOM
      1 C1         -0.0178    1.4648    0.0101 C.3       1 <0>        -0.0459
      2 N1          0.0021   -0.0041    0.0020 N.4       1 <0>        -0.3885
      3 C2         -1.3761   -0.5122    0.0107 C.3       1 <0>        -0.0025
      4 C3         -1.3560   -2.0421   -0.0167 C.3       1 <0>         0.0250
      5 N2         -0.6244   -2.5407    1.1564 N.3       1 <0>        -0.5400
      6 C4          0.7499   -2.0201    1.1745 C.3       1 <0>         0.0193
      7 C5          0.7125   -0.4904    1.1921 C.3       1 <0>        -0.0029
      8 C6         -0.6316   -4.0091    1.1963 C.3       1 <0>         0.0595
      9 C7         -0.0856   -4.4853    2.5439 C.3       1 <0>        -0.0746
     10 C8         -0.0930   -5.9918    2.5849 C.ar      1 <0>        -0.0799
     11 C9         -1.2075   -6.6644    3.0540 C.ar      1 <0>        -0.1112
     12 C10        -1.2227   -8.0427    3.0949 C.ar      1 <0>        -0.0892
     13 C11        -0.1082   -8.7650    2.6605 C.ar      1 <0>        -0.0318
     14 C12         1.0091   -8.0769    2.1893 C.ar      1 <0>        -0.0674
     15 C13         1.0129   -6.7002    2.1479 C.ar      1 <0>        -0.0951
     16 C14         2.0334   -9.1142    1.7995 C.3       1 <0>        -0.0090
     17 C15         1.3956  -10.4507    2.0922 C.2       1 <0>        -0.2224
     18 C16         0.1499  -10.2203    2.5923 C.2       1 <0>         0.0979
     19 N3         -0.4149  -11.4375    2.8529 N.pl3     1 <0>        -0.4531
     20 H1         -1.3014  -11.5886    3.2163 H         1 <0>         0.4425
     21 N4          0.5107  -12.4277    2.5021 N.2       1 <0>        -0.2525
     22 C17         1.5963  -11.8394    2.0457 C.2       1 <0>         0.1603
     23 C18         2.8218  -12.5263    1.5646 C.2       1 <0>        -0.0520
     24 C19         3.2487  -13.7056    2.1546 C.2       1 <0>        -0.1018
     25 C20         4.3837  -14.3051    1.6789 C.2       1 <0>        -0.0564
     26 S1          4.8742  -13.1955    0.3697 S.3       1 <0>         0.1176
     27 C21         3.5489  -12.0103    0.5261 C.2       1 <0>        -0.1456
     28 C22         5.0154  -15.5127    2.1187 C.1       1 <0>        -0.0713
     29 C23         5.5332  -16.5027    2.4792 C.1       1 <0>        -0.1280
     30 C24         6.1825  -17.7440    2.9313 C.3       1 <0>         0.1776
     31 O1          7.3485  -17.9866    2.1415 O.3       1 <0>        -0.3105
     32 C25         8.0691  -19.1017    2.4316 C.ar      1 <0>         0.1268
     33 C26         7.6591  -19.9481    3.4515 C.ar      1 <0>        -0.2100
     34 C27         8.3931  -21.0813    3.7441 C.ar      1 <0>        -0.0792
     35 C28         9.5357  -21.3720    3.0217 C.ar      1 <0>        -0.1551
     36 C29         9.9466  -20.5298    2.0051 C.ar      1 <0>        -0.0792
     37 C30         9.2127  -19.3986    1.7045 C.ar      1 <0>        -0.1489
     38 H2          1.0047    1.8421    0.0024 H         1 <0>         0.1243
     39 H3         -0.5450    1.8259   -0.8730 H         1 <0>         0.1242
     40 H4         -0.5280    1.8163    0.9069 H         1 <0>         0.1232
     41 H5         -1.8832   -0.1716    0.9134 H         1 <0>         0.1378
     42 H6         -1.9060   -0.1400   -0.8661 H         1 <0>         0.1358
     43 H7         -2.3783   -2.4196    0.0047 H         1 <0>         0.1238
     44 H8         -0.8610   -2.3831   -0.9260 H         1 <0>         0.0610
     45 H9          1.2641   -2.3816    2.0650 H         1 <0>         0.1260
     46 H10         1.2796   -2.3607    0.2848 H         1 <0>         0.0616
     47 H11         1.7310   -0.1020    1.1912 H         1 <0>         0.1358
     48 H12         0.1947   -0.1499    2.0888 H         1 <0>         0.1378
     49 H13        -1.6519   -4.3710    1.0694 H         1 <0>         0.0911
     50 H14        -0.0057   -4.3975    0.3929 H         1 <0>         0.0504
     51 H15         0.9347   -4.1235    2.6709 H         1 <0>         0.0748
     52 H16        -0.7115   -4.0969    3.3473 H         1 <0>         0.0880
     53 H17        -2.0695   -6.1072    3.3900 H         1 <0>         0.1298
     54 H18        -2.0947   -8.5632    3.4625 H         1 <0>         0.1261
     55 H19         1.8801   -6.1734    1.7779 H         1 <0>         0.1273
     56 H20         2.2659   -9.0328    0.7377 H         1 <0>         0.0993
     57 H21         2.9386   -8.9911    2.3940 H         1 <0>         0.1025
     58 H22         2.6970  -14.1427    2.9738 H         1 <0>         0.1446
     59 H23         3.3676  -11.1152   -0.0502 H         1 <0>         0.1944
     60 H24         6.4673  -17.6444    3.9787 H         1 <0>         0.0953
     61 H25         5.4890  -18.5778    2.8210 H         1 <0>         0.0953
     62 H26         6.7671  -19.7212    4.0165 H         1 <0>         0.1291
     63 H27         8.0744  -21.7405    4.5380 H         1 <0>         0.1270
     64 H28        10.1083  -22.2582    3.2522 H         1 <0>         0.1258
     65 H29        10.8396  -20.7588    1.4425 H         1 <0>         0.1314
     66 H30         9.5316  -18.7434    0.9074 H         1 <0>         0.1316
     67 H31         0.4748   -0.3293   -0.8280 H         1 <0>         0.4225
@<TRIPOS>BOND
     1    1    2 1
     2    1   38 1
     3    1   39 1
     4    1   40 1
     5    2    7 1
     6    2    3 1
     7    2   67 1
     8    3    4 1
     9    3   41 1
    10    3   42 1
    11    4    5 1
    12    4   43 1
    13    4   44 1
    14    5    6 1
    15    5    8 1
    16    6    7 1
    17    6   45 1
    18    6   46 1
    19    7   47 1
    20    7   48 1
    21    8    9 1
    22    8   49 1
    23    8   50 1
    24    9   10 1
    25    9   51 1
    26    9   52 1
    27   10   15 ar
    28   10   11 ar
    29   11   12 ar
    30   11   53 1
    31   12   13 ar
    32   12   54 1
    33   13   18 1
    34   13   14 ar
    35   14   15 ar
    36   14   16 1
    37   15   55 1
    38   16   17 1
    39   16   56 1
    40   16   57 1
    41   17   22 1
    42   17   18 2
    43   18   19 1
    44   19   20 1
    45   19   21 1
    46   21   22 2
    47   22   23 1
    48   23   27 2
    49   23   24 1
    50   24   25 2
    51   24   58 1
    52   25   26 1
    53   25   28 1
    54   26   27 1
    55   27   59 1
    56   28   29 3
    57   29   30 1
    58   30   31 1
    59   30   60 1
    60   30   61 1
    61   31   32 1
    62   32   37 ar
    63   32   33 ar
    64   33   34 ar
    65   33   62 1
    66   34   35 ar
    67   34   63 1
    68   35   36 ar
    69   35   64 1
    70   36   37 ar
    71   36   65 1
    72   37   66 1
@<TRIPOS>MOLECULE
CHEMBL390353__1
   67    72     0     0     0
SMALL
USER_CHARGES

@<TRIPOS>ATOM
      1 C1         -0.0178    1.4648    0.0101 C.3       1 <0>         0.0194
      2 N1          0.0021   -0.0041    0.0020 N.3       1 <0>        -0.5438
      3 C2         -1.3607   -0.5489   -0.0764 C.3       1 <0>         0.0241
      4 C3         -1.2932   -2.0762   -0.1426 C.3       1 <0>        -0.0020
      5 N2         -0.6107   -2.5886    1.0529 N.4       1 <0>        -0.3870
      6 C4          0.7570   -2.0553    1.1043 C.3       1 <0>        -0.0073
      7 C5          0.7065   -0.5278    1.1808 C.3       1 <0>         0.0245
      8 C6         -0.5621   -4.0557    0.9977 C.3       1 <0>        -0.0066
      9 C7          0.0360   -4.5955    2.2984 C.3       1 <0>        -0.0981
     10 C8          0.0859   -6.1006    2.2417 C.ar      1 <0>        -0.0961
     11 C9         -0.9899   -6.8447    2.6921 C.ar      1 <0>        -0.1093
     12 C10        -0.9508   -8.2225    2.6425 C.ar      1 <0>        -0.0809
     13 C11         0.1776   -8.8703    2.1365 C.ar      1 <0>         0.0025
     14 C12         1.2550   -8.1137    1.6858 C.ar      1 <0>        -0.0674
     15 C13         1.2049   -6.7359    1.7342 C.ar      1 <0>        -0.0910
     16 C14         2.3181   -9.0692    1.2017 C.3       1 <0>        -0.0008
     17 C15         1.7623  -10.4559    1.4113 C.2       1 <0>        -0.2349
     18 C16         0.4818  -10.3144    1.9710 C.2       1 <0>         0.0824
     19 N3         -0.0158  -11.5220    2.1599 N.2       1 <0>        -0.2460
     20 H1          0.8220  -13.4274    1.7521 H         1 <0>         0.4485
     21 N4          0.9268  -12.4633    1.7288 N.pl3     1 <0>        -0.4552
     22 C17         2.0178  -11.7861    1.2701 C.2       1 <0>         0.1763
     23 C18         3.2535  -12.3868    0.7192 C.2       1 <0>        -0.0797
     24 C19         3.1881  -13.4241   -0.2002 C.2       1 <0>        -0.1173
     25 C20         4.3559  -13.9486   -0.6831 C.2       1 <0>        -0.0473
     26 S1          5.5867  -12.9727    0.1643 S.3       1 <0>         0.1318
     27 C21         4.4864  -11.9262    1.1023 C.2       1 <0>        -0.1362
     28 C22         4.5427  -15.0097   -1.6264 C.1       1 <0>        -0.0813
     29 C23         4.6959  -15.8795   -2.3998 C.1       1 <0>        -0.1168
     30 C24         4.8880  -16.9702   -3.3695 C.3       1 <0>         0.1749
     31 O1          6.2858  -17.1814   -3.5782 O.3       1 <0>        -0.3111
     32 C25         6.6381  -18.1609   -4.4518 C.ar      1 <0>         0.1254
     33 C26         5.6586  -18.8998   -5.0993 C.ar      1 <0>        -0.2095
     34 C27         6.0193  -19.8946   -5.9873 C.ar      1 <0>        -0.0786
     35 C28         7.3553  -20.1546   -6.2306 C.ar      1 <0>        -0.1540
     36 C29         8.3335  -19.4199   -5.5863 C.ar      1 <0>        -0.0791
     37 C30         7.9779  -18.4199   -4.7020 C.ar      1 <0>        -0.1489
     38 H2          1.0047    1.8421    0.0024 H         1 <0>         0.0844
     39 H3         -0.5450    1.8259   -0.8730 H         1 <0>         0.0838
     40 H4         -0.5280    1.8163    0.9069 H         1 <0>         0.0395
     41 H5         -1.9242   -0.2477    0.8067 H         1 <0>         0.0605
     42 H6         -1.8539   -0.1676   -0.9705 H         1 <0>         0.1237
     43 H7         -2.3035   -2.4830   -0.1865 H         1 <0>         0.1362
     44 H8         -0.7413   -2.3773   -1.0330 H         1 <0>         0.1380
     45 H9          1.2666   -2.4465    1.9848 H         1 <0>         0.1373
     46 H10         1.2983   -2.3564    0.2075 H         1 <0>         0.1386
     47 H11         1.7215   -0.1310    1.2040 H         1 <0>         0.1235
     48 H12         0.1771   -0.2262    2.0846 H         1 <0>         0.0604
     49 H13        -1.5711   -4.4482    0.8715 H         1 <0>         0.1338
     50 H14         0.0569   -4.3674    0.1563 H         1 <0>         0.1337
     51 H15         1.0451   -4.2031    2.4246 H         1 <0>         0.0966
     52 H16        -0.5829   -4.2839    3.1397 H         1 <0>         0.0965
     53 H17        -1.8634   -6.3449    3.0841 H         1 <0>         0.1304
     54 H18        -1.7925   -8.7999    2.9954 H         1 <0>         0.1334
     55 H19         2.0419   -6.1529    1.3794 H         1 <0>         0.1309
     56 H20         2.5191   -8.9018    0.1436 H         1 <0>         0.0981
     57 H21         3.2317   -8.9388    1.7817 H         1 <0>         0.0975
     58 H22         2.2341  -13.8100   -0.5278 H         1 <0>         0.1413
     59 H23         4.7297  -11.1343    1.7951 H         1 <0>         0.1978
     60 H24         4.4363  -17.8838   -2.9829 H         1 <0>         0.0973
     61 H25         4.4157  -16.7033   -4.3149 H         1 <0>         0.0964
     62 H26         4.6149  -18.6976   -4.9091 H         1 <0>         0.1292
     63 H27         5.2571  -20.4701   -6.4916 H         1 <0>         0.1277
     64 H28         7.6353  -20.9330   -6.9249 H         1 <0>         0.1265
     65 H29         9.3764  -19.6251   -5.7777 H         1 <0>         0.1317
     66 H30         8.7423  -17.8434   -4.2023 H         1 <0>         0.1311
     67 H31        -1.1152   -2.2999    1.8777 H         1 <0>         0.4203
@<TRIPOS>BOND
     1    1    2 1
     2    1   38 1
     3    1   39 1
     4    1   40 1
     5    2    7 1
     6    2    3 1
     7    3    4 1
     8    3   41 1
     9    3   42 1
    10    4    5 1
    11    4   43 1
    12    4   44 1
    13    5    6 1
    14    5    8 1
    15    5   67 1
    16    6    7 1
    17    6   45 1
    18    6   46 1
    19    7   47 1
    20    7   48 1
    21    8    9 1
    22    8   49 1
    23    8   50 1
    24    9   10 1
    25    9   51 1
    26    9   52 1
    27   10   15 ar
    28   10   11 ar
    29   11   12 ar
    30   11   53 1
    31   12   13 ar
    32   12   54 1
    33   13   14 ar
    34   13   18 1
    35   14   15 ar
    36   14   16 1
    37   15   55 1
    38   16   56 1
    39   16   57 1
    40   16   17 1
    41   17   18 1
    42   17   22 2
    43   18   19 2
    44   19   21 1
    45   20   21 1
    46   21   22 1
    47   22   23 1
    48   23   27 2
    49   23   24 1
    50   24   25 2
    51   24   58 1
    52   25   26 1
    53   25   28 1
    54   26   27 1
    55   27   59 1
    56   28   29 3
    57   29   30 1
    58   30   31 1
    59   30   60 1
    60   30   61 1
    61   31   32 1
    62   32   37 ar
    63   32   33 ar
    64   33   34 ar
    65   33   62 1
    66   34   35 ar
    67   34   63 1
    68   35   36 ar
    69   35   64 1
    70   36   37 ar
    71   36   65 1
    72   37   66 1
@<TRIPOS>MOLECULE
CHEMBL390353__2
   67    72     0     0     0
SMALL
USER_CHARGES

@<TRIPOS>ATOM
      1 C1         -0.0178    1.4648    0.0101 C.3       1 <0>         0.0193
      2 N1          0.0021   -0.0041    0.0020 N.3       1 <0>        -0.5436
      3 C2         -1.3607   -0.5489   -0.0764 C.3       1 <0>         0.0240
      4 C3         -1.2932   -2.0762   -0.1426 C.3       1 <0>        -0.0019
      5 N2         -0.6107   -2.5886    1.0529 N.4       1 <0>        -0.3871
      6 C4          0.7570   -2.0553    1.1043 C.3       1 <0>        -0.0074
      7 C5          0.7065   -0.5278    1.1808 C.3       1 <0>         0.0244
      8 C6         -0.5621   -4.0557    0.9977 C.3       1 <0>        -0.0062
      9 C7          0.0360   -4.5955    2.2984 C.3       1 <0>        -0.0991
     10 C8          0.0859   -6.1006    2.2417 C.ar      1 <0>        -0.0956
     11 C9         -0.9903   -6.8446    2.6922 C.ar      1 <0>        -0.1068
     12 C10        -0.9529   -8.2223    2.6440 C.ar      1 <0>        -0.0901
     13 C11         0.1761   -8.8715    2.1376 C.ar      1 <0>        -0.0164
     14 C12         1.2544   -8.1117    1.6861 C.ar      1 <0>        -0.0665
     15 C13         1.2057   -6.7361    1.7339 C.ar      1 <0>        -0.0869
     16 C14         2.3062   -9.0814    1.2058 C.3       1 <0>        -0.0117
     17 C15         1.7266  -10.4577    1.4261 C.2       1 <0>        -0.2163
     18 C16         0.4865  -10.3083    1.9692 C.2       1 <0>         0.0895
     19 N3         -0.0256  -11.5607    2.1634 N.pl3     1 <0>        -0.4512
     20 H1         -0.8962  -11.7692    2.5370 H         1 <0>         0.4434
     21 N4          0.9269  -12.4897    1.7276 N.2       1 <0>        -0.2472
     22 C17         1.9777  -11.8317    1.2850 C.2       1 <0>         0.1615
     23 C18         3.2151  -12.4383    0.7318 C.2       1 <0>        -0.0533
     24 C19         3.7008  -13.6354    1.2339 C.2       1 <0>        -0.1021
     25 C20         4.8447  -14.1587    0.6938 C.2       1 <0>        -0.0538
     26 S1          5.2594  -12.9494   -0.5518 S.3       1 <0>         0.1171
     27 C21         3.8953  -11.8291   -0.2878 C.2       1 <0>        -0.1458
     28 C22         5.5321  -15.3664    1.0394 C.1       1 <0>        -0.0736
     29 C23         6.0957  -16.3565    1.3228 C.1       1 <0>        -0.1248
     30 C24         6.8023  -17.5980    1.6780 C.3       1 <0>         0.1768
     31 O1          7.9557  -17.7441    0.8471 O.3       1 <0>        -0.3108
     32 C25         8.7246  -18.8466    1.0473 C.ar      1 <0>         0.1264
     33 C26         8.3731  -19.7717    2.0195 C.ar      1 <0>        -0.2097
     34 C27         9.1562  -20.8919    2.2207 C.ar      1 <0>        -0.0788
     35 C28        10.2897  -21.0911    1.4544 C.ar      1 <0>        -0.1548
     36 C29        10.6425  -20.1703    0.4852 C.ar      1 <0>        -0.0793
     37 C30         9.8593  -19.0517    0.2759 C.ar      1 <0>        -0.1492
     38 H2          1.0047    1.8421    0.0024 H         1 <0>         0.0846
     39 H3         -0.5450    1.8259   -0.8730 H         1 <0>         0.0840
     40 H4         -0.5280    1.8163    0.9069 H         1 <0>         0.0396
     41 H5         -1.9242   -0.2477    0.8067 H         1 <0>         0.0605
     42 H6         -1.8539   -0.1676   -0.9705 H         1 <0>         0.1239
     43 H7         -2.3035   -2.4830   -0.1865 H         1 <0>         0.1360
     44 H8         -0.7413   -2.3773   -1.0330 H         1 <0>         0.1382
     45 H9          1.2666   -2.4465    1.9848 H         1 <0>         0.1372
     46 H10         1.2983   -2.3564    0.2075 H         1 <0>         0.1389
     47 H11         1.7215   -0.1310    1.2040 H         1 <0>         0.1239
     48 H12         0.1771   -0.2262    2.0846 H         1 <0>         0.0605
     49 H13        -1.5711   -4.4482    0.8715 H         1 <0>         0.1334
     50 H14         0.0569   -4.3674    0.1563 H         1 <0>         0.1338
     51 H15         1.0451   -4.2031    2.4246 H         1 <0>         0.0975
     52 H16        -0.5829   -4.2839    3.1397 H         1 <0>         0.0968
     53 H17        -1.8635   -6.3441    3.0838 H         1 <0>         0.1308
     54 H18        -1.7951   -8.7988    2.9974 H         1 <0>         0.1297
     55 H19         2.0428   -6.1534    1.3787 H         1 <0>         0.1328
     56 H20         2.5080   -8.9233    0.1464 H         1 <0>         0.1030
     57 H21         3.2213   -8.9614    1.7857 H         1 <0>         0.1059
     58 H22         3.1872  -14.1450    2.0357 H         1 <0>         0.1451
     59 H23         3.6659  -10.9066   -0.8005 H         1 <0>         0.1945
     60 H24         7.1103  -17.5545    2.7227 H         1 <0>         0.0957
     61 H25         6.1378  -18.4493    1.5302 H         1 <0>         0.0961
     62 H26         7.4882  -19.6162    2.6187 H         1 <0>         0.1294
     63 H27         8.8829  -21.6124    2.9774 H         1 <0>         0.1274
     64 H28        10.9008  -21.9673    1.6135 H         1 <0>         0.1260
     65 H29        11.5286  -20.3280   -0.1118 H         1 <0>         0.1313
     66 H30        10.1329  -18.3350   -0.4843 H         1 <0>         0.1311
     67 H31        -1.1152   -2.2999    1.8777 H         1 <0>         0.4203
@<TRIPOS>BOND
     1    1    2 1
     2    1   38 1
     3    1   39 1
     4    1   40 1
     5    2    7 1
     6    2    3 1
     7    3    4 1
     8    3   41 1
     9    3   42 1
    10    4    5 1
    11    4   43 1
    12    4   44 1
    13    5    6 1
    14    5    8 1
    15    5   67 1
    16    6    7 1
    17    6   45 1
    18    6   46 1
    19    7   47 1
    20    7   48 1
    21    8    9 1
    22    8   49 1
    23    8   50 1
    24    9   10 1
    25    9   51 1
    26    9   52 1
    27   10   15 ar
    28   10   11 ar
    29   11   12 ar
    30   11   53 1
    31   12   13 ar
    32   12   54 1
    33   13   18 1
    34   13   14 ar
    35   14   15 ar
    36   14   16 1
    37   15   55 1
    38   16   17 1
    39   16   56 1
    40   16   57 1
    41   17   22 1
    42   17   18 2
    43   18   19 1
    44   19   20 1
    45   19   21 1
    46   21   22 2
    47   22   23 1
    48   23   27 2
    49   23   24 1
    50   24   25 2
    51   24   58 1
    52   25   26 1
    53   25   28 1
    54   26   27 1
    55   27   59 1
    56   28   29 3
    57   29   30 1
    58   30   31 1
    59   30   60 1
    60   30   61 1
    61   31   32 1
    62   32   37 ar
    63   32   33 ar
    64   33   34 ar
    65   33   62 1
    66   34   35 ar
    67   34   63 1
    68   35   36 ar
    69   35   64 1
    70   36   37 ar
    71   36   65 1
    72   37   66 1
@<TRIPOS>MOLECULE
CHEMBL390353__3
   67    72     0     0     0
SMALL
USER_CHARGES

@<TRIPOS>ATOM
      1 C1         -0.0178    1.4648    0.0101 C.3       1 <0>        -0.0458
      2 N1          0.0021   -0.0041    0.0020 N.4       1 <0>        -0.3885
      3 C2         -1.3761   -0.5122    0.0107 C.3       1 <0>        -0.0025
      4 C3         -1.3560   -2.0421   -0.0167 C.3       1 <0>         0.0249
      5 N2         -0.6244   -2.5407    1.1564 N.3       1 <0>        -0.5398
      6 C4          0.7499   -2.0201    1.1745 C.3       1 <0>         0.0193
      7 C5          0.7125   -0.4904    1.1921 C.3       1 <0>        -0.0029
      8 C6         -0.6316   -4.0091    1.1963 C.3       1 <0>         0.0591
      9 C7         -0.0856   -4.4853    2.5439 C.3       1 <0>        -0.0736
     10 C8         -0.0930   -5.9918    2.5849 C.ar      1 <0>        -0.0812
     11 C9         -1.2072   -6.6644    3.0539 C.ar      1 <0>        -0.1133
     12 C10        -1.2205   -8.0430    3.0935 C.ar      1 <0>        -0.0803
     13 C11        -0.1067   -8.7640    2.6593 C.ar      1 <0>        -0.0124
     14 C12         1.0096   -8.0789    2.1892 C.ar      1 <0>        -0.0693
     15 C13         1.0121   -6.7000    2.1482 C.ar      1 <0>        -0.0986
     16 C14         2.0458   -9.1028    1.7949 C.3       1 <0>         0.0014
     17 C15         1.4317  -10.4512    2.0782 C.2       1 <0>        -0.2350
     18 C16         0.1450  -10.2261    2.5944 C.2       1 <0>         0.0895
     19 N3         -0.4035  -11.3995    2.8471 N.2       1 <0>        -0.2499
     20 H1          0.3689  -13.3572    2.5837 H         1 <0>         0.4473
     21 N4          0.5116  -12.4013    2.5017 N.pl3     1 <0>        -0.4578
     22 C17         1.6385  -11.7964    2.0289 C.2       1 <0>         0.1719
     23 C18         2.8625  -12.4773    1.5498 C.2       1 <0>        -0.0753
     24 C19         2.7783  -13.5688    0.6972 C.2       1 <0>        -0.1185
     25 C20         3.9358  -14.1668    0.2792 C.2       1 <0>        -0.0482
     26 S1          5.1835  -13.1846    1.0940 S.3       1 <0>         0.1250
     27 C21         4.1031  -12.0391    1.9344 C.2       1 <0>        -0.1370
     28 C22         4.1033  -15.2930   -0.5892 C.1       1 <0>        -0.0775
     29 C23         4.2407  -16.2163   -1.3012 C.1       1 <0>        -0.1190
     30 C24         4.4128  -17.3740   -2.1939 C.3       1 <0>         0.1758
     31 O1          5.8059  -17.6502   -2.3524 O.3       1 <0>        -0.3109
     32 C25         6.1402  -18.6968   -3.1523 C.ar      1 <0>         0.1257
     33 C26         5.1481  -19.4390   -3.7764 C.ar      1 <0>        -0.2094
     34 C27         5.4906  -20.5022   -4.5893 C.ar      1 <0>        -0.0787
     35 C28         6.8208  -20.8270   -4.7808 C.ar      1 <0>        -0.1541
     36 C29         7.8114  -20.0891   -4.1596 C.ar      1 <0>        -0.0792
     37 C30         7.4744  -19.0213   -3.3506 C.ar      1 <0>        -0.1489
     38 H2          1.0047    1.8421    0.0024 H         1 <0>         0.1241
     39 H3         -0.5450    1.8259   -0.8730 H         1 <0>         0.1241
     40 H4         -0.5280    1.8163    0.9069 H         1 <0>         0.1232
     41 H5         -1.8832   -0.1716    0.9134 H         1 <0>         0.1378
     42 H6         -1.9060   -0.1400   -0.8661 H         1 <0>         0.1355
     43 H7         -2.3783   -2.4196    0.0047 H         1 <0>         0.1240
     44 H8         -0.8610   -2.3831   -0.9260 H         1 <0>         0.0608
     45 H9          1.2641   -2.3816    2.0650 H         1 <0>         0.1261
     46 H10         1.2796   -2.3607    0.2848 H         1 <0>         0.0613
     47 H11         1.7310   -0.1020    1.1912 H         1 <0>         0.1354
     48 H12         0.1947   -0.1499    2.0888 H         1 <0>         0.1378
     49 H13        -1.6519   -4.3710    1.0694 H         1 <0>         0.0915
     50 H14        -0.0057   -4.3975    0.3929 H         1 <0>         0.0502
     51 H15         0.9347   -4.1235    2.6709 H         1 <0>         0.0738
     52 H16        -0.7115   -4.0969    3.3473 H         1 <0>         0.0876
     53 H17        -2.0695   -6.1081    3.3904 H         1 <0>         0.1294
     54 H18        -2.0921   -8.5646    3.4606 H         1 <0>         0.1298
     55 H19         1.8792   -6.1728    1.7786 H         1 <0>         0.1253
     56 H20         2.2779   -9.0120    0.7337 H         1 <0>         0.0947
     57 H21         2.9500   -8.9692    2.3888 H         1 <0>         0.0947
     58 H22         1.8180  -13.9394    0.3703 H         1 <0>         0.1414
     59 H23         4.3607  -11.2136    2.5813 H         1 <0>         0.1978
     60 H24         3.9170  -18.2431   -1.7616 H         1 <0>         0.0964
     61 H25         3.9736  -17.1515   -3.1663 H         1 <0>         0.0966
     62 H26         4.1089  -19.1861   -3.6265 H         1 <0>         0.1294
     63 H27         4.7186  -21.0803   -5.0753 H         1 <0>         0.1277
     64 H28         7.0865  -21.6587   -5.4165 H         1 <0>         0.1264
     65 H29         8.8498  -20.3451   -4.3105 H         1 <0>         0.1316
     66 H30         8.2487  -18.4425   -2.8692 H         1 <0>         0.1310
     67 H31         0.4748   -0.3293   -0.8280 H         1 <0>         0.4223
@<TRIPOS>BOND
     1    1    2 1
     2    1   38 1
     3    1   39 1
     4    1   40 1
     5    2    7 1
     6    2    3 1
     7    2   67 1
     8    3    4 1
     9    3   41 1
    10    3   42 1
    11    4    5 1
    12    4   43 1
    13    4   44 1
    14    5    6 1
    15    5    8 1
    16    6    7 1
    17    6   45 1
    18    6   46 1
    19    7   47 1
    20    7   48 1
    21    8    9 1
    22    8   49 1
    23    8   50 1
    24    9   10 1
    25    9   51 1
    26    9   52 1
    27   10   15 ar
    28   10   11 ar
    29   11   12 ar
    30   11   53 1
    31   12   13 ar
    32   12   54 1
    33   13   14 ar
    34   13   18 1
    35   14   15 ar
    36   14   16 1
    37   15   55 1
    38   16   56 1
    39   16   57 1
    40   16   17 1
    41   17   18 1
    42   17   22 2
    43   18   19 2
    44   19   21 1
    45   20   21 1
    46   21   22 1
    47   22   23 1
    48   23   27 2
    49   23   24 1
    50   24   25 2
    51   24   58 1
    52   25   26 1
    53   25   28 1
    54   26   27 1
    55   27   59 1
    56   28   29 3
    57   29   30 1
    58   30   31 1
    59   30   60 1
    60   30   61 1
    61   31   32 1
    62   32   37 ar
    63   32   33 ar
    64   33   34 ar
    65   33   62 1
    66   34   35 ar
    67   34   63 1
    68   35   36 ar
    69   35   64 1
    70   36   37 ar
    71   36   65 1
    72   37   66 1
@<TRIPOS>MOLECULE
CHEMBL225336
   69    74     0     0     0
SMALL
USER_CHARGES

@<TRIPOS>ATOM
      1 C1          0.0429    1.5418    0.0804 C.3       1 <0>        -0.0459
      2 N1          0.0556    0.0729    0.0639 N.4       1 <0>        -0.3884
      3 C2         -1.3249   -0.4285    0.0695 C.3       1 <0>        -0.0024
      4 C3         -1.3123   -1.9583    0.0333 C.3       1 <0>         0.0247
      5 N2         -0.5832   -2.4672    1.2036 N.3       1 <0>        -0.5343
      6 C4          0.7936   -1.9533    1.2248 C.3       1 <0>         0.0187
      7 C5          0.7636   -0.4236    1.2512 C.3       1 <0>        -0.0024
      8 C6         -0.5976   -3.9358    1.2352 C.3       1 <0>         0.0982
      9 C7         -0.0622   -4.4150    2.5598 C.ar      1 <0>        -0.0829
     10 C8          1.2928   -4.6498    2.7128 C.ar      1 <0>        -0.1165
     11 C9          1.7911   -5.0885    3.9216 C.ar      1 <0>        -0.0925
     12 C10         0.9249   -5.2970    4.9980 C.ar      1 <0>        -0.0235
     13 C11        -0.4385   -5.0567    4.8326 C.ar      1 <0>        -0.0674
     14 C12        -0.9260   -4.6141    3.6229 C.ar      1 <0>        -0.0725
     15 C13        -1.1037   -5.3671    6.1511 C.3       1 <0>        -0.0108
     16 C14         0.0052   -5.8044    7.0772 C.2       1 <0>        -0.2184
     17 C15         1.1757   -5.7549    6.3824 C.2       1 <0>         0.0933
     18 N3          2.1696   -6.1533    7.2319 N.pl3     1 <0>        -0.4527
     19 H1          3.1129   -6.2179    7.0154 H         1 <0>         0.4425
     20 N4          1.5871   -6.4507    8.4698 N.2       1 <0>        -0.2503
     21 C16         0.2903   -6.2422    8.3802 C.2       1 <0>         0.1603
     22 C17        -0.7000   -6.4367    9.4695 C.2       1 <0>        -0.0510
     23 C18        -0.5427   -7.4578   10.3935 C.2       1 <0>        -0.1053
     24 C19        -1.4797   -7.6001   11.3814 C.2       1 <0>        -0.0553
     25 S1         -2.6159   -6.2731   11.0156 S.3       1 <0>         0.1150
     26 C20        -1.7829   -5.6076    9.5842 C.2       1 <0>        -0.1464
     27 C21        -1.5341   -8.5658   12.4374 C.1       1 <0>        -0.0791
     28 C22        -1.5788   -9.3575   13.3031 C.1       1 <0>        -0.1369
     29 C23        -1.6348  -10.3502   14.3885 C.3       1 <0>         0.2541
     30 N5         -2.8260  -10.1119   15.2073 N.am      1 <0>        -0.7419
     31 C24        -3.0855  -10.9042   16.2662 C.2       1 <0>         0.7080
     32 O1         -2.3309  -11.8169   16.5419 O.2       1 <0>        -0.5668
     33 N6         -4.1813  -10.6850   17.0195 N.am      1 <0>        -0.6842
     34 C25        -4.5032  -11.5646   18.0592 C.ar      1 <0>         0.1572
     35 C26        -5.8325  -11.8441   18.3477 C.ar      1 <0>        -0.1462
     36 C27        -6.1469  -12.7131   19.3742 C.ar      1 <0>        -0.1016
     37 C28        -5.1396  -13.3044   20.1143 C.ar      1 <0>        -0.1339
     38 C29        -3.8149  -13.0278   19.8299 C.ar      1 <0>        -0.1019
     39 C30        -3.4939  -12.1642   18.8009 C.ar      1 <0>        -0.1193
     40 H2          1.0673    1.9142    0.0749 H         1 <0>         0.1241
     41 H3         -0.4825    1.9105   -0.8006 H         1 <0>         0.1245
     42 H4         -0.4657    1.8906    0.9792 H         1 <0>         0.1232
     43 H5         -1.8305   -0.0907    0.9741 H         1 <0>         0.1379
     44 H6         -1.8530   -0.0488   -0.8052 H         1 <0>         0.1364
     45 H7         -2.3364   -2.3310    0.0525 H         1 <0>         0.1252
     46 H8         -0.8189   -2.2965   -0.8779 H         1 <0>         0.0617
     47 H9          1.3059   -2.3224    2.1134 H         1 <0>         0.1266
     48 H10         1.3217   -2.2914    0.3333 H         1 <0>         0.0612
     49 H11         1.7840   -0.0402    1.2526 H         1 <0>         0.1353
     50 H12         0.2473   -0.0858    2.1498 H         1 <0>         0.1376
     51 H13        -1.6196   -4.2920    1.1060 H         1 <0>         0.1000
     52 H14         0.0265   -4.3226    0.4296 H         1 <0>         0.0585
     53 H15         1.9633   -4.4891    1.8816 H         1 <0>         0.1247
     54 H16         2.8494   -5.2711    4.0359 H         1 <0>         0.1262
     55 H17        -1.9827   -4.4260    3.5026 H         1 <0>         0.1328
     56 H18        -1.5930   -4.4760    6.5445 H         1 <0>         0.1013
     57 H19        -1.8289   -6.1712    6.0265 H         1 <0>         0.1045
     58 H20         0.3020   -8.1281   10.3350 H         1 <0>         0.1446
     59 H21        -2.0623   -4.7669    8.9664 H         1 <0>         0.1945
     60 H22        -1.6814  -11.3524   13.9623 H         1 <0>         0.1021
     61 H23        -0.7433  -10.2605   15.0093 H         1 <0>         0.1022
     62 H24        -3.4279   -9.3837   14.9874 H         1 <0>         0.4021
     63 H25        -4.7470   -9.9174   16.8409 H         1 <0>         0.4078
     64 H26        -6.6197  -11.3823   17.7703 H         1 <0>         0.1242
     65 H27        -7.1805  -12.9306   19.5993 H         1 <0>         0.1266
     66 H28        -5.3880  -13.9836   20.9165 H         1 <0>         0.1239
     67 H29        -3.0305  -13.4910   20.4100 H         1 <0>         0.1262
     68 H30        -2.4590  -11.9522   18.5761 H         1 <0>         0.1406
     69 H31         0.5269   -0.2498   -0.7679 H         1 <0>         0.4223
@<TRIPOS>BOND
     1    1    2 1
     2    1   40 1
     3    1   41 1
     4    1   42 1
     5    2    7 1
     6    2    3 1
     7    2   69 1
     8    3    4 1
     9    3   43 1
    10    3   44 1
    11    4    5 1
    12    4   45 1
    13    4   46 1
    14    5    6 1
    15    5    8 1
    16    6    7 1
    17    6   47 1
    18    6   48 1
    19    7   49 1
    20    7   50 1
    21    8    9 1
    22    8   51 1
    23    8   52 1
    24    9   14 ar
    25    9   10 ar
    26   10   11 ar
    27   10   53 1
    28   11   12 ar
    29   11   54 1
    30   12   17 1
    31   12   13 ar
    32   13   14 ar
    33   13   15 1
    34   14   55 1
    35   15   16 1
    36   15   56 1
    37   15   57 1
    38   16   21 1
    39   16   17 2
    40   17   18 1
    41   18   19 1
    42   18   20 1
    43   20   21 2
    44   21   22 1
    45   22   26 2
    46   22   23 1
    47   23   24 2
    48   23   58 1
    49   24   25 1
    50   24   27 1
    51   25   26 1
    52   26   59 1
    53   27   28 3
    54   28   29 1
    55   29   30 1
    56   29   60 1
    57   29   61 1
    58   30   31 am
    59   30   62 1
    60   31   32 2
    61   31   33 am
    62   33   34 1
    63   33   63 1
    64   34   39 ar
    65   34   35 ar
    66   35   36 ar
    67   35   64 1
    68   36   37 ar
    69   36   65 1
    70   37   38 ar
    71   37   66 1
    72   38   39 ar
    73   38   67 1
    74   39   68 1
@<TRIPOS>MOLECULE
CHEMBL225336__1
   69    74     0     0     0
SMALL
USER_CHARGES

@<TRIPOS>ATOM
      1 C1         -0.0173    1.5514    0.0443 C.3       1 <0>        -0.0458
      2 N1         -0.0040    0.0826    0.0277 N.4       1 <0>        -0.3884
      3 C2         -1.3844   -0.4194    0.0359 C.3       1 <0>        -0.0023
      4 C3         -1.3713   -1.9492   -0.0004 C.3       1 <0>         0.0248
      5 N2         -0.6399   -2.4578    1.1686 N.3       1 <0>        -0.5344
      6 C4          0.7368   -1.9435    1.1873 C.3       1 <0>         0.0186
      7 C5          0.7063   -0.4137    1.2137 C.3       1 <0>        -0.0025
      8 C6         -0.6537   -3.9264    1.2001 C.3       1 <0>         0.0989
      9 C7         -0.1157   -4.4055    2.5237 C.ar      1 <0>        -0.0835
     10 C8          1.2394   -4.6398    2.6745 C.ar      1 <0>        -0.1191
     11 C9          1.7381   -5.0780    3.8834 C.ar      1 <0>        -0.0832
     12 C10         0.8741   -5.2864    4.9600 C.ar      1 <0>        -0.0047
     13 C11        -0.4874   -5.0480    4.7991 C.ar      1 <0>        -0.0688
     14 C12        -0.9768   -4.6048    3.5878 C.ar      1 <0>        -0.0763
     15 C13        -1.1667   -5.3548    6.1114 C.3       1 <0>        -0.0004
     16 C14        -0.0754   -5.7950    7.0554 C.2       1 <0>        -0.2336
     17 C15         1.1366   -5.7469    6.3471 C.2       1 <0>         0.0864
     18 N3          2.1004   -6.1306    7.1628 N.2       1 <0>        -0.2493
     19 H1          2.0149   -6.7395    9.1928 H         1 <0>         0.4475
     20 N4          1.5350   -6.4329    8.4076 N.pl3     1 <0>        -0.4572
     21 C16         0.1910   -6.2196    8.3217 C.2       1 <0>         0.1730
     22 C17        -0.7976   -6.4138    9.4063 C.2       1 <0>        -0.0786
     23 C18        -0.5435   -5.9474   10.6883 C.2       1 <0>        -0.1170
     24 C19        -1.4859   -6.1488   11.6595 C.2       1 <0>        -0.0506
     25 S1         -2.7677   -7.0134   10.7679 S.3       1 <0>         0.1290
     26 C20        -1.9856   -7.0532    9.1641 C.2       1 <0>        -0.1349
     27 C21        -1.4521   -5.7648   13.0387 C.1       1 <0>        -0.0863
     28 C22        -1.4244   -5.4501   14.1693 C.1       1 <0>        -0.1306
     29 C23        -1.3897   -5.0554   15.5870 C.3       1 <0>         0.2528
     30 N5         -2.6269   -5.4845   16.2438 N.am      1 <0>        -0.7429
     31 C24        -2.8183   -5.2291   17.5532 C.2       1 <0>         0.7081
     32 O1         -1.9642   -4.6426   18.1894 O.2       1 <0>        -0.5668
     33 N6         -3.9565   -5.6239   18.1575 N.am      1 <0>        -0.6840
     34 C25        -4.1149   -5.4455   19.5365 C.ar      1 <0>         0.1564
     35 C26        -4.8076   -6.3881   20.2849 C.ar      1 <0>        -0.1459
     36 C27        -4.9617   -6.2094   21.6458 C.ar      1 <0>        -0.1014
     37 C28        -4.4271   -5.0934   22.2630 C.ar      1 <0>        -0.1334
     38 C29        -3.7372   -4.1528   21.5204 C.ar      1 <0>        -0.1019
     39 C30        -3.5747   -4.3286   20.1602 C.ar      1 <0>        -0.1192
     40 H2          1.0069    1.9241    0.0369 H         1 <0>         0.1240
     41 H3         -0.5444    1.9200   -0.8357 H         1 <0>         0.1241
     42 H4         -0.5244    1.9001    0.9440 H         1 <0>         0.1230
     43 H5         -1.8885   -0.0817    0.9414 H         1 <0>         0.1377
     44 H6         -1.9142   -0.0398   -0.8378 H         1 <0>         0.1359
     45 H7         -2.3953   -2.3222    0.0207 H         1 <0>         0.1247
     46 H8         -0.8794   -2.2871   -0.9125 H         1 <0>         0.0614
     47 H9          1.2508   -2.3124    2.0748 H         1 <0>         0.1276
     48 H10         1.2634   -2.2814    0.2947 H         1 <0>         0.0613
     49 H11         1.7265   -0.0300    1.2133 H         1 <0>         0.1353
     50 H12         0.1915   -0.0761    2.1133 H         1 <0>         0.1376
     51 H13        -1.6759   -4.2830    1.0728 H         1 <0>         0.0991
     52 H14        -0.0310   -4.3130    0.3934 H         1 <0>         0.0582
     53 H15         1.9090   -4.4794    1.8424 H         1 <0>         0.1243
     54 H16         2.7966   -5.2602    3.9970 H         1 <0>         0.1298
     55 H17        -2.0337   -4.4173    3.4690 H         1 <0>         0.1309
     56 H18        -1.6582   -4.4616    6.4970 H         1 <0>         0.0967
     57 H19        -1.8945   -6.1553    5.9788 H         1 <0>         0.0965
     58 H20         0.3802   -5.4357   10.9150 H         1 <0>         0.1407
     59 H21        -2.3534   -7.4744    8.2402 H         1 <0>         0.1979
     60 H22        -0.5368   -5.5275   16.0748 H         1 <0>         0.1026
     61 H23        -1.2963   -3.9719   15.6604 H         1 <0>         0.1033
     62 H24        -3.3084   -5.9525   15.7363 H         1 <0>         0.4024
     63 H25        -4.6660   -6.0316   17.6366 H         1 <0>         0.4079
     64 H26        -5.2256   -7.2597   19.8034 H         1 <0>         0.1242
     65 H27        -5.5006   -6.9419   22.2284 H         1 <0>         0.1269
     66 H28        -4.5490   -4.9560   23.3273 H         1 <0>         0.1242
     67 H29        -3.3212   -3.2821   22.0053 H         1 <0>         0.1264
     68 H30        -3.0317   -3.5960   19.5815 H         1 <0>         0.1405
     69 H31         0.4658   -0.2399   -0.8049 H         1 <0>         0.4222
@<TRIPOS>BOND
     1    1    2 1
     2    1   40 1
     3    1   41 1
     4    1   42 1
     5    2    7 1
     6    2    3 1
     7    2   69 1
     8    3    4 1
     9    3   43 1
    10    3   44 1
    11    4    5 1
    12    4   45 1
    13    4   46 1
    14    5    6 1
    15    5    8 1
    16    6    7 1
    17    6   47 1
    18    6   48 1
    19    7   49 1
    20    7   50 1
    21    8    9 1
    22    8   51 1
    23    8   52 1
    24    9   14 ar
    25    9   10 ar
    26   10   11 ar
    27   10   53 1
    28   11   12 ar
    29   11   54 1
    30   12   13 ar
    31   12   17 1
    32   13   14 ar
    33   13   15 1
    34   14   55 1
    35   15   56 1
    36   15   57 1
    37   15   16 1
    38   16   17 1
    39   16   21 2
    40   17   18 2
    41   18   20 1
    42   19   20 1
    43   20   21 1
    44   21   22 1
    45   22   26 2
    46   22   23 1
    47   23   24 2
    48   23   58 1
    49   24   25 1
    50   24   27 1
    51   25   26 1
    52   26   59 1
    53   27   28 3
    54   28   29 1
    55   29   30 1
    56   29   60 1
    57   29   61 1
    58   30   31 am
    59   30   62 1
    60   31   32 2
    61   31   33 am
    62   33   34 1
    63   33   63 1
    64   34   39 ar
    65   34   35 ar
    66   35   36 ar
    67   35   64 1
    68   36   37 ar
    69   36   65 1
    70   37   38 ar
    71   37   66 1
    72   38   39 ar
    73   38   67 1
    74   39   68 1
@<TRIPOS>MOLECULE
CHEMBL234625
   51    54     0     0     0
SMALL
USER_CHARGES

@<TRIPOS>ATOM
      1 C1          0.0435    1.3622    0.4635 C.3       1 <0>        -0.0473
      2 N1          0.0454   -0.0899    0.2414 N.4       1 <0>        -0.3880
      3 C2          0.8081   -0.7478    1.3107 C.3       1 <0>        -0.0531
      4 C3         -1.3365   -0.5880    0.2479 C.3       1 <0>        -0.0089
      5 C4         -1.3438   -2.0764   -0.1066 C.3       1 <0>        -0.0959
      6 C5         -2.7615   -2.5874   -0.1000 C.ar      1 <0>        -0.1311
      7 C6         -3.3070   -3.0932    1.0658 C.ar      1 <0>        -0.0852
      8 C7         -4.6061   -3.5619    1.0754 C.ar      1 <0>        -0.1128
      9 C8         -5.3648   -3.5249   -0.0875 C.ar      1 <0>         0.1877
     10 C9         -4.8138   -3.0162   -1.2567 C.ar      1 <0>        -0.1464
     11 C10        -3.5159   -2.5442   -1.2581 C.ar      1 <0>        -0.0836
     12 N2         -6.6800   -3.9990   -0.0813 N.pl3     1 <0>        -0.6372
     13 C11        -7.4632   -3.8550    1.0531 C.ar      1 <0>         0.5617
     14 N3         -6.9900   -3.1645    2.0805 N.ar      1 <0>        -0.5502
     15 C12        -7.7065   -3.0039    3.1820 C.ar      1 <0>         0.2070
     16 C13        -8.9686   -3.5678    3.2569 C.ar      1 <0>        -0.1874
     17 C14        -9.4410   -4.2911    2.1567 C.ar      1 <0>         0.2916
     18 N4         -8.6660   -4.4063    1.0798 N.ar      1 <0>        -0.5412
     19 C15       -10.7848   -4.9145    2.1869 C.ar      1 <0>        -0.0600
     20 C16       -11.2840   -5.4343    3.3871 C.ar      1 <0>        -0.1135
     21 C17       -12.5189   -6.0101    3.4287 C.ar      1 <0>        -0.0742
     22 C18       -13.2939   -6.0835    2.2673 C.ar      1 <0>        -0.0827
     23 C19       -14.6230   -6.6186    1.9672 C.2       1 <0>        -0.2088
     24 C20       -14.8474   -6.4041    0.6601 C.2       1 <0>         0.0651
     25 N5        -13.7709   -5.7753    0.0988 N.pl3     1 <0>        -0.5933
     26 H1        -13.7001   -5.5167   -0.8334 H         1 <0>         0.4179
     27 C21       -12.8015   -5.5639    1.0548 C.ar      1 <0>         0.0806
     28 C22       -11.5448   -4.9748    1.0246 C.ar      1 <0>        -0.0650
     29 Cl1        -9.9416   -3.3823    4.6826 Cl        1 <0>        -0.0211
     30 H2          1.0690    1.7318    0.4587 H         1 <0>         0.1242
     31 H3         -0.5224    1.8504   -0.3299 H         1 <0>         0.1230
     32 H4         -0.4173    1.5819    1.4266 H         1 <0>         0.1218
     33 H5          0.3473   -0.5282    2.2737 H         1 <0>         0.1225
     34 H6          0.8095   -1.8253    1.1459 H         1 <0>         0.1247
     35 H7          1.8335   -0.3782    1.3059 H         1 <0>         0.1242
     36 H8         -1.7684   -0.4485    1.2389 H         1 <0>         0.1312
     37 H9         -1.9249   -0.0369   -0.4857 H         1 <0>         0.1315
     38 H10        -0.9119   -2.2160   -1.0976 H         1 <0>         0.0933
     39 H11        -0.7555   -2.6275    0.6270 H         1 <0>         0.0939
     40 H12        -2.7165   -3.1220    1.9695 H         1 <0>         0.1262
     41 H13        -5.0314   -3.9571    1.9861 H         1 <0>         0.1399
     42 H14        -5.4009   -2.9863   -2.1626 H         1 <0>         0.1313
     43 H15        -3.0882   -2.1448   -2.1659 H         1 <0>         0.1277
     44 H16        -7.0444   -4.4286   -0.8709 H         1 <0>         0.4287
     45 H17        -7.3105   -2.4394    4.0132 H         1 <0>         0.1831
     46 H18       -10.6870   -5.3791    4.2854 H         1 <0>         0.1361
     47 H19       -12.8980   -6.4095    4.3577 H         1 <0>         0.1313
     48 H20       -15.2956   -7.0959    2.6644 H         1 <0>         0.1516
     49 H21       -15.7454   -6.6868    0.1309 H         1 <0>         0.1754
     50 H22       -11.1579   -4.5688    0.1017 H         1 <0>         0.1270
     51 H23         0.4720   -0.2932   -0.6501 H         1 <0>         0.4266
@<TRIPOS>BOND
     1    1    2 1
     2    1   30 1
     3    1   31 1
     4    1   32 1
     5    2    3 1
     6    2    4 1
     7    2   51 1
     8    3   33 1
     9    3   34 1
    10    3   35 1
    11    4    5 1
    12    4   36 1
    13    4   37 1
    14    5    6 1
    15    5   38 1
    16    5   39 1
    17    6   11 ar
    18    6    7 ar
    19    7    8 ar
    20    7   40 1
    21    8    9 ar
    22    8   41 1
    23    9   10 ar
    24    9   12 1
    25   10   11 ar
    26   10   42 1
    27   11   43 1
    28   12   13 1
    29   12   44 1
    30   13   18 ar
    31   13   14 ar
    32   14   15 ar
    33   15   16 ar
    34   15   45 1
    35   16   17 ar
    36   16   29 1
    37   17   18 ar
    38   17   19 1
    39   19   28 ar
    40   19   20 ar
    41   20   21 ar
    42   20   46 1
    43   21   22 ar
    44   21   47 1
    45   22   27 ar
    46   22   23 1
    47   23   24 2
    48   23   48 1
    49   24   25 1
    50   24   49 1
    51   25   26 1
    52   25   27 1
    53   27   28 ar
    54   28   50 1
@<TRIPOS>MOLECULE
CHEMBL406381
   50    52     0     0     0
SMALL
USER_CHARGES

@<TRIPOS>ATOM
      1 C1          0.2205    1.1394    1.7034 C.3       1 <0>        -0.1506
      2 C2          0.1473   -0.2387    1.0428 C.3       1 <0>        -0.1365
      3 C3         -1.2643   -0.8067    1.2028 C.3       1 <0>         0.1345
      4 N1         -1.3344   -2.1262    0.5702 N.am      1 <0>        -0.7388
      5 C4         -2.4891   -2.8210    0.5869 C.2       1 <0>         0.7064
      6 O1         -3.4727   -2.3527    1.1270 O.2       1 <0>        -0.5684
      7 N2         -2.5536   -4.0350    0.0050 N.am      1 <0>        -0.6837
      8 C5         -3.7256   -4.7978    0.1028 C.ar      1 <0>         0.1883
      9 C6         -4.9639   -4.1704    0.1096 C.ar      1 <0>        -0.0953
     10 C7         -6.1182   -4.9221    0.2060 C.ar      1 <0>        -0.0778
     11 C8         -6.0411   -6.3046    0.2965 C.ar      1 <0>         0.0790
     12 C9         -4.8044   -6.9329    0.2902 C.ar      1 <0>        -0.0836
     13 C10        -3.6486   -6.1824    0.1871 C.ar      1 <0>        -0.0565
     14 Cl1        -2.1010   -6.9687    0.1715 Cl        1 <0>        -0.0535
     15 O2         -7.1783   -7.0437    0.3918 O.3       1 <0>        -0.2316
     16 C11        -7.9228   -7.2108   -0.7256 C.ar      1 <0>         0.3977
     17 C12        -9.0614   -8.0472   -0.7197 C.ar      1 <0>        -0.1530
     18 C13        -9.4708   -8.7366    0.4294 C.ar      1 <0>        -0.1376
     19 C14       -10.5800   -9.5317    0.3781 C.ar      1 <0>         0.1108
     20 C15       -11.3120   -9.6650   -0.8106 C.ar      1 <0>         0.1698
     21 C16       -10.9337   -9.0033   -1.9452 C.ar      1 <0>        -0.1874
     22 C17        -9.8003   -8.1809   -1.9219 C.ar      1 <0>         0.1978
     23 N3         -9.3888   -7.5104   -3.0087 N.ar      1 <0>        -0.5242
     24 C18        -8.3231   -6.7477   -2.9544 C.ar      1 <0>         0.3381
     25 N4         -7.6065   -6.5900   -1.8523 N.ar      1 <0>        -0.5746
     26 O3        -12.4114  -10.4627   -0.8349 O.3       1 <0>        -0.2965
     27 C19       -13.1160  -10.5587   -2.0744 C.3       1 <0>         0.0193
     28 O4        -10.9788  -10.2019    1.4920 O.3       1 <0>        -0.2999
     29 C20       -10.1918  -10.0259    2.6717 C.3       1 <0>         0.0213
     30 H1          1.2262    1.5440    1.5894 H         1 <0>         0.0618
     31 H2         -0.4965    1.8087    1.2280 H         1 <0>         0.0591
     32 H3         -0.0161    1.0472    2.7634 H         1 <0>         0.0591
     33 H4          0.3839   -0.1465   -0.0172 H         1 <0>         0.0697
     34 H5          0.8643   -0.9080    1.5182 H         1 <0>         0.0697
     35 H6         -1.5009   -0.8988    2.2628 H         1 <0>         0.0703
     36 H7         -1.9813   -0.1373    0.7274 H         1 <0>         0.0705
     37 H8         -0.5497   -2.4998    0.1394 H         1 <0>         0.3995
     38 H9         -1.7890   -4.3808   -0.4815 H         1 <0>         0.4108
     39 H10        -5.0245   -3.0943    0.0399 H         1 <0>         0.1597
     40 H11        -7.0815   -4.4337    0.2113 H         1 <0>         0.1381
     41 H12        -4.7450   -8.0089    0.3614 H         1 <0>         0.1456
     42 H13        -8.9130   -8.6402    1.3492 H         1 <0>         0.1540
     43 H14       -11.5056   -9.1140   -2.8546 H         1 <0>         0.1584
     44 H15        -8.0190   -6.2218   -3.8473 H         1 <0>         0.2011
     45 H16       -12.4500  -10.9544   -2.8412 H         1 <0>         0.0626
     46 H17       -13.9703  -11.2252   -1.9560 H         1 <0>         0.1079
     47 H18       -13.4651   -9.5697   -2.3714 H         1 <0>         0.0626
     48 H19       -10.6184  -10.6141    3.4841 H         1 <0>         0.1066
     49 H20        -9.1712  -10.3571    2.4803 H         1 <0>         0.0595
     50 H21       -10.1857   -8.9721    2.9504 H         1 <0>         0.0598
@<TRIPOS>BOND
     1    1    2 1
     2    1   30 1
     3    1   31 1
     4    1   32 1
     5    2    3 1
     6    2   33 1
     7    2   34 1
     8    3    4 1
     9    3   35 1
    10    3   36 1
    11    4    5 am
    12    4   37 1
    13    5    6 2
    14    5    7 am
    15    7    8 1
    16    7   38 1
    17    8   13 ar
    18    8    9 ar
    19    9   10 ar
    20    9   39 1
    21   10   11 ar
    22   10   40 1
    23   11   12 ar
    24   11   15 1
    25   12   13 ar
    26   12   41 1
    27   13   14 1
    28   15   16 1
    29   16   25 ar
    30   16   17 ar
    31   17   22 ar
    32   17   18 ar
    33   18   19 ar
    34   18   42 1
    35   19   20 ar
    36   19   28 1
    37   20   21 ar
    38   20   26 1
    39   21   22 ar
    40   21   43 1
    41   22   23 ar
    42   23   24 ar
    43   24   25 ar
    44   24   44 1
    45   26   27 1
    46   27   45 1
    47   27   46 1
    48   27   47 1
    49   28   29 1
    50   29   48 1
    51   29   49 1
    52   29   50 1
@<TRIPOS>MOLECULE
CHEMBL204524
   50    54     0     0     0
SMALL
USER_CHARGES

@<TRIPOS>ATOM
      1 C1          1.0060    0.4731   -0.9370 C.3       1 <0>        -0.0466
      2 N1          0.8848   -0.9883   -0.8505 N.4       1 <0>        -0.3846
      3 C2         -0.5355   -1.3577   -0.8007 C.3       1 <0>        -0.0226
      4 C3         -0.6664   -2.8841   -0.8261 C.3       1 <0>         0.1051
      5 N2          0.1443   -3.4400    0.2683 N.pl3     1 <0>        -0.6276
      6 C4          1.5412   -2.9953    0.3913 C.3       1 <0>         0.1047
      7 C5          1.5679   -1.4636    0.3592 C.3       1 <0>        -0.0220
      8 C6         -0.3948   -4.3599    1.1621 C.ar      1 <0>         0.4096
      9 C7         -1.6391   -4.9274    0.8921 C.ar      1 <0>        -0.2222
     10 C8         -2.1751   -5.8421    1.7799 C.ar      1 <0>        -0.0096
     11 C9         -1.4451   -6.1628    2.9177 C.ar      1 <0>        -0.0461
     12 C10        -0.1958   -5.5569    3.1347 C.ar      1 <0>         0.3141
     13 N3          0.2841   -4.6832    2.2477 N.ar      1 <0>        -0.5116
     14 N4          0.2854   -6.0429    4.2972 N.2       1 <0>        -0.5326
     15 C11        -0.5694   -6.8996    4.8115 C.2       1 <0>         0.4294
     16 N5         -1.6608   -7.0089    3.9921 N.pl3     1 <0>        -0.5715
     17 H1         -2.4374   -7.5717    4.1370 H         1 <0>         0.4400
     18 C12        -0.3814   -7.6299    6.0752 C.2       1 <0>        -0.3069
     19 C13         0.7016   -7.3306    6.9053 C.2       1 <0>         0.3820
     20 C14         0.8453   -8.0876    8.1555 C.ar      1 <0>        -0.1575
     21 C15         1.9057   -7.8376    9.0309 C.ar      1 <0>        -0.0473
     22 C16         2.0141   -8.5573   10.1876 C.ar      1 <0>        -0.1481
     23 C17         1.0794   -9.5345   10.4997 C.ar      1 <0>        -0.0436
     24 C18         0.0260   -9.7969    9.6503 C.ar      1 <0>        -0.1649
     25 C19        -0.1044   -9.0766    8.4672 C.ar      1 <0>         0.2186
     26 N6         -1.1529   -9.3239    7.6039 N.am      1 <0>        -0.6353
     27 C20        -1.3000   -8.6358    6.4597 C.2       1 <0>         0.5812
     28 O1         -2.2449   -8.8872    5.7322 O.2       1 <0>        -0.5612
     29 N7          1.6066   -6.3563    6.5617 N.pl3     1 <0>        -0.8014
     30 H2          2.0598    0.7482   -0.9821 H         1 <0>         0.1247
     31 H3          0.4993    0.8273   -1.8347 H         1 <0>         0.1245
     32 H4          0.5490    0.9283   -0.0583 H         1 <0>         0.1210
     33 H5         -0.9799   -0.9700    0.1160 H         1 <0>         0.1323
     34 H6         -1.0516   -0.9342   -1.6623 H         1 <0>         0.1424
     35 H7         -1.7105   -3.1646   -0.6874 H         1 <0>         0.1280
     36 H8         -0.3050   -3.2669   -1.7806 H         1 <0>         0.0925
     37 H9          1.9566   -3.3492    1.3348 H         1 <0>         0.1388
     38 H10         2.1255   -3.3893   -0.4402 H         1 <0>         0.0852
     39 H11         2.6017   -1.1182    0.3524 H         1 <0>         0.1403
     40 H12         1.0598   -1.0727    1.2408 H         1 <0>         0.1317
     41 H13        -2.1797   -4.6549   -0.0022 H         1 <0>         0.1409
     42 H14        -3.1374   -6.2956    1.5937 H         1 <0>         0.1414
     43 H15         2.6368   -7.0788    8.7940 H         1 <0>         0.1338
     44 H16         2.8337   -8.3643   10.8639 H         1 <0>         0.1374
     45 H17         1.1786  -10.0953   11.4174 H         1 <0>         0.1400
     46 H18        -0.6958  -10.5597    9.9024 H         1 <0>         0.1424
     47 H19         1.3891   -5.7158    5.8666 H         1 <0>         0.4299
     48 H20         2.4633   -6.3088    7.0142 H         1 <0>         0.4056
     49 H21        -1.8010  -10.0090    7.8307 H         1 <0>         0.4214
     50 H22         1.3108   -1.4086   -1.6629 H         1 <0>         0.4245
@<TRIPOS>BOND
     1    1    2 1
     2    1   30 1
     3    1   31 1
     4    1   32 1
     5    2    7 1
     6    2    3 1
     7    2   50 1
     8    3    4 1
     9    3   33 1
    10    3   34 1
    11    4    5 1
    12    4   35 1
    13    4   36 1
    14    5    6 1
    15    5    8 1
    16    6    7 1
    17    6   37 1
    18    6   38 1
    19    7   39 1
    20    7   40 1
    21    8   13 ar
    22    8    9 ar
    23    9   10 ar
    24    9   41 1
    25   10   11 ar
    26   10   42 1
    27   11   16 1
    28   11   12 ar
    29   12   13 ar
    30   12   14 1
    31   14   15 2
    32   15   16 1
    33   15   18 1
    34   16   17 1
    35   18   27 1
    36   18   19 2
    37   19   20 1
    38   19   29 1
    39   20   25 ar
    40   20   21 ar
    41   21   22 ar
    42   21   43 1
    43   22   23 ar
    44   22   44 1
    45   23   24 ar
    46   23   45 1
    47   24   25 ar
    48   24   46 1
    49   25   26 1
    50   26   27 am
    51   26   49 1
    52   27   28 2
    53   29   47 1
    54   29   48 1
@<TRIPOS>MOLECULE
CHEMBL204524__1
   49    53     0     0     0
SMALL
USER_CHARGES

@<TRIPOS>ATOM
      1 C1          0.9904    0.4912   -0.9200 C.3       1 <0>        -0.0450
      2 N1          0.8699   -0.9705   -0.8364 N.4       1 <0>        -0.3828
      3 C2         -0.5501   -1.3407   -0.7854 C.3       1 <0>        -0.0229
      4 C3         -0.6803   -2.8671   -0.8139 C.3       1 <0>         0.1126
      5 N2          0.1322   -3.4249    0.2783 N.pl3     1 <0>        -0.6308
      6 C4          1.5290   -2.9798    0.4002 C.3       1 <0>         0.1105
      7 C5          1.5550   -1.4480    0.3714 C.3       1 <0>        -0.0216
      8 C6         -0.4053   -4.3469    1.1708 C.ar      1 <0>         0.3563
      9 C7         -1.6496   -4.9144    0.9014 C.ar      1 <0>        -0.2617
     10 C8         -2.1840   -5.8312    1.7881 C.ar      1 <0>        -0.0090
     11 C9         -1.4522   -6.1540    2.9241 C.ar      1 <0>        -0.0652
     12 C10        -0.2029   -5.5481    3.1406 C.ar      1 <0>         0.2361
     13 N3          0.2754   -4.6723    2.2548 N.ar      1 <0>        -0.5214
     14 N4          0.2802   -6.0364    4.3013 N.2       1 <0>        -0.5864
     15 C11        -0.5735   -6.8945    4.8151 C.2       1 <0>         0.2857
     16 N5         -1.6661   -7.0025    3.9970 N.2       1 <0>        -0.5289
     17 C12        -0.3834   -7.6274    6.0769 C.2       1 <0>        -0.2143
     18 C13         0.7016   -7.3306    6.9053 C.2       1 <0>         0.3030
     19 C14         0.8473   -8.0902    8.1537 C.ar      1 <0>        -0.1350
     20 C15         1.9098   -7.8427    9.0274 C.ar      1 <0>        -0.0570
     21 C16         2.0201   -8.5647   10.1824 C.ar      1 <0>        -0.1597
     22 C17         1.0854   -9.5418   10.4946 C.ar      1 <0>        -0.0659
     23 C18         0.0300   -9.8018    9.6469 C.ar      1 <0>        -0.1696
     24 C19        -0.1024   -9.0791    8.4655 C.ar      1 <0>         0.2097
     25 N6         -1.1529   -9.3239    7.6039 N.am      1 <0>        -0.6467
     26 C20        -1.3019   -8.6334    6.4613 C.2       1 <0>         0.5564
     27 O1         -2.2485   -8.8827    5.7354 O.2       1 <0>        -0.5080
     28 N7          1.6066   -6.3563    6.5617 N.pl3     1 <0>        -0.8226
     29 H1          2.0439    0.7669   -0.9660 H         1 <0>         0.1206
     30 H2          0.4823    0.8469   -1.8163 H         1 <0>         0.1202
     31 H3          0.5344    0.9442   -0.0397 H         1 <0>         0.1188
     32 H4         -0.9934   -0.9552    0.1327 H         1 <0>         0.1298
     33 H5         -1.0676   -0.9157   -1.6454 H         1 <0>         0.1343
     34 H6         -1.7241   -3.1484   -0.6744 H         1 <0>         0.1256
     35 H7         -0.3200   -3.2477   -1.7697 H         1 <0>         0.0788
     36 H8          1.9459   -3.3355    1.3425 H         1 <0>         0.1363
     37 H9          2.1124   -3.3717   -0.4329 H         1 <0>         0.0718
     38 H10         2.5886   -1.1021    0.3638 H         1 <0>         0.1326
     39 H11         1.0479   -1.0593    1.2545 H         1 <0>         0.1293
     40 H12        -2.1917   -4.6403    0.0085 H         1 <0>         0.1106
     41 H13        -3.1464   -6.2847    1.6022 H         1 <0>         0.1137
     42 H14         2.6410   -7.0840    8.7904 H         1 <0>         0.1269
     43 H15         2.8413   -8.3737   10.8573 H         1 <0>         0.1266
     44 H16         1.1861  -10.1045   11.4109 H         1 <0>         0.1290
     45 H17        -0.6919  -10.5646    9.8990 H         1 <0>         0.1332
     46 H18         1.3891   -5.7158    5.8666 H         1 <0>         0.4278
     47 H19         2.4633   -6.3088    7.0142 H         1 <0>         0.3880
     48 H20        -1.8010  -10.0090    7.8307 H         1 <0>         0.4090
     49 H21         1.2950   -1.3889   -1.6503 H         1 <0>         0.4214
@<TRIPOS>BOND
     1    1    2 1
     2    1   29 1
     3    1   30 1
     4    1   31 1
     5    2    7 1
     6    2    3 1
     7    2   49 1
     8    3    4 1
     9    3   32 1
    10    3   33 1
    11    4    5 1
    12    4   34 1
    13    4   35 1
    14    5    6 1
    15    5    8 1
    16    6    7 1
    17    6   36 1
    18    6   37 1
    19    7   38 1
    20    7   39 1
    21    8   13 ar
    22    8    9 ar
    23    9   10 ar
    24    9   40 1
    25   10   11 ar
    26   10   41 1
    27   11   16 1
    28   11   12 ar
    29   12   13 ar
    30   12   14 1
    31   14   15 2
    32   15   16 1
    33   15   17 1
    34   17   26 1
    35   17   18 2
    36   18   19 1
    37   18   28 1
    38   19   24 ar
    39   19   20 ar
    40   20   21 ar
    41   20   42 1
    42   21   22 ar
    43   21   43 1
    44   22   23 ar
    45   22   44 1
    46   23   24 ar
    47   23   45 1
    48   24   25 1
    49   25   26 am
    50   25   48 1
    51   26   27 2
    52   28   46 1
    53   28   47 1
@<TRIPOS>MOLECULE
CHEMBL204524__2
   50    54     0     0     0
SMALL
USER_CHARGES

@<TRIPOS>ATOM
      1 C1         -0.6782    2.3951    1.6824 C.3       1 <0>        -0.0467
      2 N1         -0.7294    0.9575    1.3847 N.4       1 <0>        -0.3845
      3 C2         -2.1078    0.4761    1.5405 C.3       1 <0>        -0.0231
      4 C3         -2.1845   -0.9954    1.1200 C.3       1 <0>         0.1051
      5 N2         -1.1860   -1.7530    1.8901 N.pl3     1 <0>        -0.6267
      6 C4          0.1947   -1.2464    1.9226 C.3       1 <0>         0.1040
      7 C5          0.1590    0.2368    2.3052 C.3       1 <0>        -0.0219
      8 C6         -1.5376   -2.9152    2.5688 C.ar      1 <0>         0.4164
      9 C7         -2.7872   -3.4897    2.3408 C.ar      1 <0>        -0.2259
     10 C8         -3.1382   -4.6339    3.0064 C.ar      1 <0>         0.0144
     11 C9         -2.2176   -5.1919    3.9029 C.ar      1 <0>        -0.0126
     12 C10        -0.9748   -4.5617    4.0861 C.ar      1 <0>         0.2807
     13 N3         -0.6783   -3.4585    3.4150 N.ar      1 <0>        -0.5347
     14 N4         -0.2909   -5.3244    5.0105 N.pl3     1 <0>        -0.5692
     15 C11        -1.1064   -6.3709    5.3604 C.2       1 <0>         0.4050
     16 N5         -2.2400   -6.2862    4.7036 N.2       1 <0>        -0.5156
     17 H1          0.6013   -5.1526    5.3500 H         1 <0>         0.4397
     18 C12        -0.7622   -7.4286    6.3253 C.2       1 <0>        -0.3013
     19 C13        -1.6073   -8.5271    6.4941 C.2       1 <0>         0.3772
     20 C14        -1.2196   -9.5554    7.4683 C.ar      1 <0>        -0.1554
     21 C15        -2.0202  -10.6802    7.6853 C.ar      1 <0>        -0.0477
     22 C16        -1.6342  -11.6214    8.5979 C.ar      1 <0>        -0.1477
     23 C17        -0.4537  -11.4687    9.3113 C.ar      1 <0>        -0.0448
     24 C18         0.3503  -10.3667    9.1130 C.ar      1 <0>        -0.1650
     25 C19        -0.0222   -9.3963    8.1883 C.ar      1 <0>         0.2165
     26 N6          0.7699   -8.2862    7.9740 N.am      1 <0>        -0.6355
     27 C20         0.4300   -7.3404    7.0827 C.2       1 <0>         0.5805
     28 O1          1.1644   -6.3806    6.9254 O.2       1 <0>        -0.5636
     29 N7         -2.7692   -8.6426    5.7695 N.pl3     1 <0>        -0.8032
     30 H2          0.3432    2.7554    1.5594 H         1 <0>         0.1248
     31 H3         -1.3373    2.9313    0.9997 H         1 <0>         0.1250
     32 H4         -1.0023    2.5653    2.7091 H         1 <0>         0.1211
     33 H5         -2.4108    0.5724    2.5831 H         1 <0>         0.1325
     34 H6         -2.7730    1.0687    0.9123 H         1 <0>         0.1432
     35 H7         -3.1809   -1.3846    1.3292 H         1 <0>         0.1293
     36 H8         -1.9697   -1.0836    0.0550 H         1 <0>         0.0934
     37 H9          0.7713   -1.8017    2.6624 H         1 <0>         0.1363
     38 H10         0.6498   -1.3601    0.9387 H         1 <0>         0.0864
     39 H11         1.1643    0.6531    2.2405 H         1 <0>         0.1406
     40 H12        -0.2125    0.3404    3.3246 H         1 <0>         0.1316
     41 H13        -3.4748   -3.0347    1.6433 H         1 <0>         0.1410
     42 H14        -4.1014   -5.0947    2.8444 H         1 <0>         0.1470
     43 H15        -2.9405  -10.8050    7.1341 H         1 <0>         0.1342
     44 H16        -2.2529  -12.4906    8.7655 H         1 <0>         0.1374
     45 H17        -0.1621  -12.2208   10.0294 H         1 <0>         0.1396
     46 H18         1.2667  -10.2570    9.6738 H         1 <0>         0.1417
     47 H19        -2.9070   -8.0919    4.9829 H         1 <0>         0.4291
     48 H20        -3.4515   -9.2748    6.0445 H         1 <0>         0.4058
     49 H21         1.5935   -8.1883    8.4771 H         1 <0>         0.4205
     50 H22        -0.4264    0.8010    0.4351 H         1 <0>         0.4248
@<TRIPOS>BOND
     1    1    2 1
     2    1   30 1
     3    1   31 1
     4    1   32 1
     5    2    7 1
     6    2    3 1
     7    2   50 1
     8    3    4 1
     9    3   33 1
    10    3   34 1
    11    4    5 1
    12    4   35 1
    13    4   36 1
    14    5    6 1
    15    5    8 1
    16    6    7 1
    17    6   37 1
    18    6   38 1
    19    7   39 1
    20    7   40 1
    21    8   13 ar
    22    8    9 ar
    23    9   41 1
    24    9   10 ar
    25   10   42 1
    26   10   11 ar
    27   11   12 ar
    28   11   16 1
    29   12   14 1
    30   12   13 ar
    31   14   15 1
    32   14   17 1
    33   15   18 1
    34   15   16 2
    35   18   27 1
    36   18   19 2
    37   19   20 1
    38   19   29 1
    39   20   25 ar
    40   20   21 ar
    41   21   22 ar
    42   21   43 1
    43   22   23 ar
    44   22   44 1
    45   23   24 ar
    46   23   45 1
    47   24   25 ar
    48   24   46 1
    49   25   26 1
    50   26   27 am
    51   26   49 1
    52   27   28 2
    53   29   47 1
    54   29   48 1
@<TRIPOS>MOLECULE
CHEMBL380702
   44    48     0     0     0
SMALL
USER_CHARGES

@<TRIPOS>ATOM
      1 C1          0.3063    1.6579    0.0248 C.ar      1 <0>        -0.1616
      2 C2          1.5677    2.2353   -0.0121 C.ar      1 <0>        -0.0709
      3 C3          2.7001    1.4499   -0.0414 C.ar      1 <0>        -0.1707
      4 C4          2.5807    0.0638   -0.0336 C.ar      1 <0>         0.2080
      5 C5          1.3004   -0.5164    0.0043 C.ar      1 <0>        -0.1290
      6 C6          0.1654    0.2986    0.0331 C.ar      1 <0>        -0.0583
      7 C7          1.1813   -1.9802    0.0125 C.2       1 <0>         0.2943
      8 C8          2.3556   -2.7363   -0.0181 C.2       1 <0>        -0.2088
      9 C9          3.6092   -2.0800   -0.0555 C.2       1 <0>         0.5554
     10 N1          3.7027   -0.7400   -0.0621 N.am      1 <0>        -0.6478
     11 O1          4.6287   -2.7470   -0.0817 O.2       1 <0>        -0.5074
     12 C10         2.2897   -4.2064   -0.0110 C.2       1 <0>         0.2705
     13 N2          3.3689   -5.0438    0.0827 N.2       1 <0>        -0.5346
     14 C11         2.8785   -6.3384    0.0551 C.ar      1 <0>        -0.0773
     15 C12         3.4676   -7.5949    0.1134 C.ar      1 <0>        -0.0132
     16 C13         2.6479   -8.7077    0.0579 C.ar      1 <0>        -0.2639
     17 C14         1.2694   -8.5372   -0.0536 C.ar      1 <0>         0.3823
     18 N3          0.7305   -7.3323   -0.1074 N.ar      1 <0>        -0.5320
     19 C15         1.4815   -6.2309   -0.0574 C.ar      1 <0>         0.2432
     20 N4          1.1851   -4.9156   -0.0879 N.2       1 <0>        -0.5950
     21 N5          0.4453   -9.6568   -0.1098 N.pl3     1 <0>        -0.6252
     22 C16        -0.9803   -9.5316   -0.4522 C.3       1 <0>         0.1025
     23 C17        -1.2998  -10.5344   -1.5667 C.3       1 <0>         0.0465
     24 O2         -0.8532  -11.8341   -1.1728 O.3       1 <0>        -0.3874
     25 C18         0.5591  -11.9324   -0.9741 C.3       1 <0>         0.0472
     26 C19         0.9750  -11.0018    0.1653 C.3       1 <0>         0.0993
     27 N6         -0.0494   -2.5884    0.0495 N.pl3     1 <0>        -0.8218
     28 H1         -0.5707    2.2876    0.0517 H         1 <0>         0.1246
     29 H2          1.6630    3.3111   -0.0182 H         1 <0>         0.1263
     30 H3          3.6771    1.9092   -0.0707 H         1 <0>         0.1310
     31 H4         -0.8193   -0.1442    0.0622 H         1 <0>         0.1266
     32 H5          4.5390   -7.7004    0.1995 H         1 <0>         0.1085
     33 H6          3.0725   -9.6998    0.1004 H         1 <0>         0.1121
     34 H7         -1.5891   -9.7512    0.4249 H         1 <0>         0.0539
     35 H8         -1.1871   -8.5191   -0.7990 H         1 <0>         0.0998
     36 H9         -2.3758  -10.5560   -1.7396 H         1 <0>         0.0969
     37 H10        -0.7891  -10.2360   -2.4823 H         1 <0>         0.0513
     38 H11         0.8205  -12.9598   -0.7206 H         1 <0>         0.0980
     39 H12         1.0765  -11.6391   -1.8875 H         1 <0>         0.0526
     40 H13         2.0626  -10.9625    0.2272 H         1 <0>         0.0913
     41 H14         0.5664  -11.3720    1.1056 H         1 <0>         0.0596
     42 H15        -0.8519   -2.0534    0.1531 H         1 <0>         0.3837
     43 H16        -0.1163   -3.5530   -0.0279 H         1 <0>         0.4330
     44 H17         4.5800   -0.3270   -0.0882 H         1 <0>         0.4065
@<TRIPOS>BOND
     1    1    6 ar
     2    1    2 ar
     3    1   28 1
     4    2    3 ar
     5    2   29 1
     6    3    4 ar
     7    3   30 1
     8    4   10 1
     9    4    5 ar
    10    5    6 ar
    11    5    7 1
    12    6   31 1
    13    7    8 2
    14    7   27 1
    15    8    9 1
    16    8   12 1
    17    9   10 am
    18    9   11 2
    19   10   44 1
    20   12   20 2
    21   12   13 1
    22   13   14 1
    23   14   15 ar
    24   14   19 ar
    25   15   16 ar
    26   15   32 1
    27   16   17 ar
    28   16   33 1
    29   17   18 ar
    30   17   21 1
    31   18   19 ar
    32   19   20 1
    33   21   26 1
    34   21   22 1
    35   22   23 1
    36   22   34 1
    37   22   35 1
    38   23   24 1
    39   23   36 1
    40   23   37 1
    41   24   25 1
    42   25   26 1
    43   25   38 1
    44   25   39 1
    45   26   40 1
    46   26   41 1
    47   27   42 1
    48   27   43 1
@<TRIPOS>MOLECULE
CHEMBL380702__1
   45    49     0     0     0
SMALL
USER_CHARGES

@<TRIPOS>ATOM
      1 C1          0.1984    1.5219    0.0261 C.ar      1 <0>        -0.1506
      2 C2          1.4330    2.1547   -0.0084 C.ar      1 <0>        -0.0497
      3 C3          2.5991    1.4202   -0.0399 C.ar      1 <0>        -0.1657
      4 C4          2.5410    0.0302   -0.0367 C.ar      1 <0>         0.2165
      5 C5          1.2877   -0.6063   -0.0011 C.ar      1 <0>        -0.1505
      6 C6          0.1177    0.1576    0.0299 C.ar      1 <0>        -0.0492
      7 C7          1.2335   -2.0739    0.0022 C.2       1 <0>         0.3670
      8 C8          2.4394   -2.7769   -0.0305 C.2       1 <0>        -0.2936
      9 C9          3.6627   -2.0662   -0.0653 C.2       1 <0>         0.5781
     10 N1          3.6974   -0.7233   -0.0674 N.am      1 <0>        -0.6372
     11 O1          4.7106   -2.6878   -0.0937 O.2       1 <0>        -0.5585
     12 C10         2.4384   -4.2494   -0.0282 C.2       1 <0>         0.3862
     13 N2          1.3683   -5.0050   -0.1162 N.2       1 <0>        -0.5160
     14 C11         1.7331   -6.3106   -0.0837 C.ar      1 <0>        -0.0345
     15 C12         1.0180   -7.5134   -0.1418 C.ar      1 <0>         0.0123
     16 C13         1.7167   -8.6901   -0.0820 C.ar      1 <0>        -0.2314
     17 C14         3.1052   -8.6620    0.0339 C.ar      1 <0>         0.4371
     18 N3          3.7651   -7.5166    0.0875 N.ar      1 <0>        -0.5463
     19 H1          4.4733   -4.7332    0.1321 H         1 <0>         0.4373
     20 C15         3.1334   -6.3536    0.0333 C.ar      1 <0>         0.2911
     21 N4          3.5560   -5.0404    0.0604 N.pl3     1 <0>        -0.5708
     22 N5          3.8099   -9.8599    0.0947 N.pl3     1 <0>        -0.6111
     23 C16         5.2399   -9.8807    0.4414 C.3       1 <0>         0.0923
     24 C17         5.4516  -10.9086    1.5588 C.3       1 <0>         0.0461
     25 O2          4.8753  -12.1565    1.1657 O.3       1 <0>        -0.3795
     26 C18         3.4610  -12.1100    0.9628 C.3       1 <0>         0.0460
     27 C19         3.1460  -11.1441   -0.1796 C.3       1 <0>         0.0894
     28 N6          0.0301   -2.7365    0.0368 N.pl3     1 <0>        -0.8040
     29 H2         -0.7056    2.1122    0.0547 H         1 <0>         0.1350
     30 H3          1.4807    3.2336   -0.0110 H         1 <0>         0.1370
     31 H4          3.5548    1.9223   -0.0674 H         1 <0>         0.1400
     32 H5         -0.8464   -0.3283    0.0572 H         1 <0>         0.1329
     33 H6         -0.0583   -7.5131   -0.2313 H         1 <0>         0.1414
     34 H7          1.1943   -9.6344   -0.1240 H         1 <0>         0.1415
     35 H8          5.8256  -10.1634   -0.4333 H         1 <0>         0.0698
     36 H9          5.5482   -8.8940    0.7870 H         1 <0>         0.1017
     37 H10         6.5191  -11.0400    1.7351 H         1 <0>         0.1060
     38 H11         4.9714  -10.5575    2.4722 H         1 <0>         0.0549
     39 H12         3.0965  -13.1057    0.7103 H         1 <0>         0.1079
     40 H13         2.9736  -11.7632    1.8740 H         1 <0>         0.0565
     41 H14         2.0684  -10.9937   -0.2451 H         1 <0>         0.0963
     42 H15         3.5173  -11.5562   -1.1179 H         1 <0>         0.0763
     43 H16        -0.7955   -2.2376    0.1392 H         1 <0>         0.4010
     44 H17         0.0062   -3.7030   -0.0411 H         1 <0>         0.4324
     45 H18         4.5557   -0.2721   -0.0922 H         1 <0>         0.4187
@<TRIPOS>BOND
     1    1    6 ar
     2    1    2 ar
     3    1   29 1
     4    2    3 ar
     5    2   30 1
     6    3    4 ar
     7    3   31 1
     8    4   10 1
     9    4    5 ar
    10    5    6 ar
    11    5    7 1
    12    6   32 1
    13    7    8 2
    14    7   28 1
    15    8    9 1
    16    8   12 1
    17    9   10 am
    18    9   11 2
    19   10   45 1
    20   12   21 1
    21   12   13 2
    22   13   14 1
    23   14   15 ar
    24   14   20 ar
    25   15   16 ar
    26   15   33 1
    27   16   17 ar
    28   16   34 1
    29   17   18 ar
    30   17   22 1
    31   18   20 ar
    32   19   21 1
    33   20   21 1
    34   22   27 1
    35   22   23 1
    36   23   24 1
    37   23   35 1
    38   23   36 1
    39   24   25 1
    40   24   37 1
    41   24   38 1
    42   25   26 1
    43   26   27 1
    44   26   39 1
    45   26   40 1
    46   27   41 1
    47   27   42 1
    48   28   43 1
    49   28   44 1
@<TRIPOS>MOLECULE
CHEMBL380702__2
   45    49     0     0     0
SMALL
USER_CHARGES

@<TRIPOS>ATOM
      1 C1          0.1895    1.5492    0.0341 C.ar      1 <0>        -0.1504
      2 C2          1.4254    2.1796   -0.0007 C.ar      1 <0>        -0.0483
      3 C3          2.5900    1.4429   -0.0328 C.ar      1 <0>        -0.1661
      4 C4          2.5293    0.0529   -0.0300 C.ar      1 <0>         0.2179
      5 C5          1.2747   -0.5811    0.0058 C.ar      1 <0>        -0.1525
      6 C6          0.1062    0.1851    0.0375 C.ar      1 <0>        -0.0480
      7 C7          1.2176   -2.0485    0.0086 C.2       1 <0>         0.3746
      8 C8          2.4228   -2.7542   -0.0247 C.2       1 <0>        -0.3047
      9 C9          3.6475   -2.0454   -0.0597 C.2       1 <0>         0.5810
     10 N1          3.6842   -0.7026   -0.0614 N.am      1 <0>        -0.6372
     11 O1          4.6943   -2.6686   -0.0882 O.2       1 <0>        -0.5607
     12 C10         2.4191   -4.2258   -0.0229 C.2       1 <0>         0.4166
     13 N2          3.5324   -5.0172    0.0707 N.pl3     1 <0>        -0.5724
     14 C11         3.0974   -6.3313    0.0373 C.ar      1 <0>        -0.0614
     15 C12         3.7389   -7.5619    0.0928 C.ar      1 <0>        -0.0150
     16 C13         2.9671   -8.7082    0.0312 C.ar      1 <0>        -0.2235
     17 C14         1.5829   -8.5957   -0.0834 C.ar      1 <0>         0.4261
     18 N3          0.9937   -7.4145   -0.1345 N.ar      1 <0>        -0.5204
     19 H1          4.4510   -4.7149    0.1458 H         1 <0>         0.4356
     20 C15         1.6973   -6.2825   -0.0785 C.ar      1 <0>         0.3177
     21 N4          1.3456   -4.9808   -0.1052 N.2       1 <0>        -0.5368
     22 N5          0.8071   -9.7489   -0.1458 N.pl3     1 <0>        -0.6133
     23 C16        -0.6218   -9.6828   -0.4912 C.3       1 <0>         0.0938
     24 C17        -0.8960  -10.6940   -1.6102 C.3       1 <0>         0.0457
     25 O2         -0.3958  -11.9751   -1.2199 O.3       1 <0>        -0.3800
     26 C18         1.0190  -12.0144   -1.0182 C.3       1 <0>         0.0462
     27 C19         1.3926  -11.0714    0.1257 C.3       1 <0>         0.0901
     28 N6          0.0136   -2.7083    0.0434 N.pl3     1 <0>        -0.7990
     29 H2         -0.7133    2.1412    0.0632 H         1 <0>         0.1355
     30 H3          1.4752    3.2584   -0.0029 H         1 <0>         0.1374
     31 H4          3.5467    1.9431   -0.0604 H         1 <0>         0.1403
     32 H5         -0.8589   -0.2989    0.0649 H         1 <0>         0.1335
     33 H6          4.8135   -7.6223    0.1814 H         1 <0>         0.1359
     34 H7          3.4332   -9.6816    0.0713 H         1 <0>         0.1414
     35 H8         -1.2228   -9.9313    0.3836 H         1 <0>         0.0685
     36 H9         -0.8704   -8.6787   -0.8347 H         1 <0>         0.1035
     37 H10        -1.9697  -10.7605   -1.7858 H         1 <0>         0.1054
     38 H11        -0.3963  -10.3708   -2.5234 H         1 <0>         0.0545
     39 H12         1.3230  -13.0307   -0.7678 H         1 <0>         0.1069
     40 H13         1.5256  -11.6960   -1.9292 H         1 <0>         0.0560
     41 H14         2.4773  -10.9863    0.1904 H         1 <0>         0.0945
     42 H15         0.9978  -11.4621    1.0636 H         1 <0>         0.0752
     43 H16        -0.8109   -2.2079    0.1466 H         1 <0>         0.4019
     44 H17        -0.0122   -3.6748   -0.0352 H         1 <0>         0.4349
     45 H18         4.5433   -0.2529   -0.0859 H         1 <0>         0.4190
@<TRIPOS>BOND
     1    1    6 ar
     2    1    2 ar
     3    1   29 1
     4    2    3 ar
     5    2   30 1
     6    3    4 ar
     7    3   31 1
     8    4   10 1
     9    4    5 ar
    10    5    6 ar
    11    5    7 1
    12    6   32 1
    13    7    8 2
    14    7   28 1
    15    8    9 1
    16    8   12 1
    17    9   10 am
    18    9   11 2
    19   10   45 1
    20   12   21 2
    21   12   13 1
    22   13   14 1
    23   13   19 1
    24   14   15 ar
    25   14   20 ar
    26   15   16 ar
    27   15   33 1
    28   16   17 ar
    29   16   34 1
    30   17   18 ar
    31   17   22 1
    32   18   20 ar
    33   20   21 1
    34   22   27 1
    35   22   23 1
    36   23   24 1
    37   23   35 1
    38   23   36 1
    39   24   25 1
    40   24   37 1
    41   24   38 1
    42   25   26 1
    43   26   27 1
    44   26   39 1
    45   26   40 1
    46   27   41 1
    47   27   42 1
    48   28   43 1
    49   28   44 1
@<TRIPOS>MOLECULE
CHEMBL368252
   53    56     0     0     0
SMALL
USER_CHARGES

@<TRIPOS>ATOM
      1 C1         -1.4297    0.1319   -1.6204 C.3       1 <0>         0.0149
      2 O1         -0.5921   -0.5500   -0.6847 O.3       1 <0>        -0.2867
      3 C2          0.7496   -0.4848   -0.8954 C.ar      1 <0>         0.1340
      4 C3          1.2328    0.2163   -1.9622 C.ar      1 <0>        -0.1356
      5 C4          2.6172    0.2835   -2.1794 C.ar      1 <0>        -0.0907
      6 C5          3.1538    1.0002   -3.2726 C.ar      1 <0>         0.2827
      7 C6          4.5293    1.0218   -3.4219 C.ar      1 <0>        -0.2654
      8 C7          5.3319    0.3498   -2.5086 C.ar      1 <0>         0.2252
      9 N1          4.8231   -0.3133   -1.4968 N.ar      1 <0>        -0.4825
     10 C8          3.5020   -0.3758   -1.2916 C.ar      1 <0>         0.1815
     11 C9          2.9743   -1.0897   -0.2030 C.ar      1 <0>        -0.2360
     12 C10         1.6234   -1.1338   -0.0113 C.ar      1 <0>         0.2159
     13 O2          1.1185   -1.8205    1.0470 O.3       1 <0>        -0.2778
     14 C11         2.0580   -2.4608    1.9127 C.3       1 <0>         0.0118
     15 O3          2.3456    1.6466   -4.1487 O.3       1 <0>        -0.2084
     16 C12         2.9288    2.3997   -5.1188 C.ar      1 <0>         0.0149
     17 C13         3.5192    1.7845   -6.2133 C.ar      1 <0>        -0.0990
     18 C14         4.1113    2.5490   -7.1991 C.ar      1 <0>        -0.1062
     19 C15         4.1156    3.9335   -7.0948 C.ar      1 <0>         0.1956
     20 C16         3.5246    4.5486   -5.9993 C.ar      1 <0>        -0.1305
     21 C17         2.9282    3.7834   -5.0167 C.ar      1 <0>        -0.0771
     22 N2          4.7166    4.7097   -8.0946 N.am      1 <0>        -0.6848
     23 C18         4.6549    4.3157   -9.3820 C.2       1 <0>         0.7059
     24 O4          4.1501    3.2469   -9.6672 O.2       1 <0>        -0.5503
     25 N3          5.1526    5.1065  -10.3534 N.am      1 <0>        -0.6761
     26 C19         4.9872    4.7525  -11.6971 C.ar      1 <0>         0.1513
     27 C20         3.8250    4.1149  -12.1107 C.ar      1 <0>        -0.1176
     28 C21         3.6649    3.7668  -13.4376 C.ar      1 <0>        -0.0998
     29 C22         4.6603    4.0525  -14.3539 C.ar      1 <0>        -0.1282
     30 C23         5.8188    4.6874  -13.9452 C.ar      1 <0>        -0.0987
     31 C24         5.9826    5.0432  -12.6207 C.ar      1 <0>        -0.1414
     32 H1         -1.1845    1.1939   -1.6208 H         1 <0>         0.0669
     33 H2         -1.2695   -0.2783   -2.6175 H         1 <0>         0.0673
     34 H3         -2.4738    0.0001   -1.3367 H         1 <0>         0.1185
     35 H4          0.5528    0.7165   -2.6358 H         1 <0>         0.1727
     36 H5          4.9771    1.5586   -4.2451 H         1 <0>         0.1850
     37 H6          6.4042    0.3734   -2.6349 H         1 <0>         0.2116
     38 H7          3.6356   -1.5981    0.4830 H         1 <0>         0.1710
     39 H8          2.7260   -1.7133    2.3404 H         1 <0>         0.0692
     40 H9          1.5241   -2.9719    2.7138 H         1 <0>         0.1214
     41 H10         2.6404   -3.1858    1.3441 H         1 <0>         0.0692
     42 H11         3.5161    0.7075   -6.2941 H         1 <0>         0.1409
     43 H12         4.5712    2.0700   -8.0508 H         1 <0>         0.1585
     44 H13         3.5276    5.6255   -5.9177 H         1 <0>         0.1458
     45 H14         2.4648    4.2619   -4.1666 H         1 <0>         0.1443
     46 H15         5.1771    5.5306   -7.8602 H         1 <0>         0.4151
     47 H16         5.6254    5.9209  -10.1210 H         1 <0>         0.4108
     48 H17         3.0473    3.8911  -11.3955 H         1 <0>         0.1321
     49 H18         2.7614    3.2706  -13.7599 H         1 <0>         0.1279
     50 H19         4.5329    3.7790  -15.3909 H         1 <0>         0.1270
     51 H20         6.5945    4.9092  -14.6632 H         1 <0>         0.1299
     52 H21         6.8856    5.5433  -12.3030 H         1 <0>         0.1265
     53 H22         5.4192   -0.7694   -0.8825 H         1 <0>         0.4471
@<TRIPOS>BOND
     1    1    2 1
     2    1   32 1
     3    1   33 1
     4    1   34 1
     5    2    3 1
     6    3   12 ar
     7    3    4 ar
     8    4    5 ar
     9    4   35 1
    10    5   10 ar
    11    5    6 ar
    12    6    7 ar
    13    6   15 1
    14    7    8 ar
    15    7   36 1
    16    8    9 ar
    17    8   37 1
    18    9   10 ar
    19    9   53 1
    20   10   11 ar
    21   11   12 ar
    22   11   38 1
    23   12   13 1
    24   13   14 1
    25   14   39 1
    26   14   40 1
    27   14   41 1
    28   15   16 1
    29   16   21 ar
    30   16   17 ar
    31   17   18 ar
    32   17   42 1
    33   18   19 ar
    34   18   43 1
    35   19   20 ar
    36   19   22 1
    37   20   21 ar
    38   20   44 1
    39   21   45 1
    40   22   23 am
    41   22   46 1
    42   23   24 2
    43   23   25 am
    44   25   26 1
    45   25   47 1
    46   26   31 ar
    47   26   27 ar
    48   27   28 ar
    49   27   48 1
    50   28   29 ar
    51   28   49 1
    52   29   30 ar
    53   29   50 1
    54   30   31 ar
    55   30   51 1
    56   31   52 1
@<TRIPOS>MOLECULE
CHEMBL272888
   74    78     0     0     0
SMALL
USER_CHARGES

@<TRIPOS>ATOM
      1 C1          1.5721    0.9016    0.3894 C.3       1 <0>        -0.1309
      2 C2          0.9698   -0.4719    0.2425 C.ar      1 <0>        -0.0237
      3 C3          0.9993   -1.1113   -0.9803 C.ar      1 <0>        -0.1079
      4 C4          0.4483   -2.3710   -1.1202 C.ar      1 <0>        -0.1026
      5 C5         -0.1390   -3.0029   -0.0302 C.ar      1 <0>         0.1296
      6 C6         -0.1734   -2.3696    1.2023 C.ar      1 <0>        -0.0799
      7 C7          0.3871   -1.1000    1.3446 C.ar      1 <0>        -0.1278
      8 C8          0.3591   -0.4198    2.6568 C.2       1 <0>         0.5673
      9 O1          0.7771    0.7170    2.7613 O.2       1 <0>        -0.5100
     10 N1         -0.1299   -1.0599    3.7374 N.am      1 <0>        -0.6569
     11 C9         -0.0682   -0.4529    4.9989 C.ar      1 <0>        -0.0038
     12 C10        -0.2167    0.9245    5.1348 C.ar      1 <0>         0.1998
     13 N2         -0.1526    1.4626    6.3413 N.ar      1 <0>        -0.5386
     14 C11         0.0498    0.7079    7.4109 C.ar      1 <0>         0.5398
     15 N3          0.1958   -0.6054    7.3194 N.ar      1 <0>        -0.5393
     16 C12         0.1373   -1.2135    6.1464 C.ar      1 <0>         0.1684
     17 N4          0.1109    1.3088    8.6594 N.pl3     1 <0>        -0.6391
     18 C13         0.4404    0.5471    9.7878 C.ar      1 <0>         0.1392
     19 C14         1.3515   -0.4954    9.6800 C.ar      1 <0>        -0.0677
     20 C15         1.6763   -1.2462   10.7923 C.ar      1 <0>        -0.1620
     21 C16         1.0923   -0.9585   12.0190 C.ar      1 <0>         0.1752
     22 C17         0.1815    0.0843   12.1269 C.ar      1 <0>        -0.1606
     23 C18        -0.1397    0.8381   11.0155 C.ar      1 <0>        -0.1022
     24 N5          1.4211   -1.7198   13.1464 N.pl3     1 <0>        -0.6457
     25 C19         0.7222   -1.5188   14.4251 C.3       1 <0>         0.1009
     26 C20         0.2472   -2.8820   14.9386 C.3       1 <0>        -0.0233
     27 N6          1.3894   -3.8020   15.0104 N.4       1 <0>        -0.3836
     28 C21         1.9176   -4.0496   13.6629 C.3       1 <0>        -0.0232
     29 C22         2.4714   -2.7480   13.0846 C.3       1 <0>         0.0996
     30 C23         0.9554   -5.0730   15.6055 C.3       1 <0>        -0.0470
     31 N7         -0.6957   -4.2777   -0.1772 N.am      1 <0>        -0.6672
     32 C24        -1.7940   -4.6186    0.5257 C.2       1 <0>         0.5639
     33 O2         -2.3558   -3.7899    1.2153 O.2       1 <0>        -0.5113
     34 C25        -2.3155   -6.0000    0.4580 C.ar      1 <0>        -0.1408
     35 C26        -1.6694   -6.9556   -0.3285 C.ar      1 <0>        -0.0535
     36 C27        -2.1613   -8.2429   -0.3872 C.ar      1 <0>        -0.1219
     37 C28        -3.2926   -8.5881    0.3312 C.ar      1 <0>        -0.0409
     38 C29        -3.9375   -7.6461    1.1125 C.ar      1 <0>        -0.1886
     39 C30        -3.4526   -6.3563    1.1847 C.ar      1 <0>        -0.0070
     40 C31        -5.1688   -8.0310    1.8915 C.3       1 <0>         0.5101
     41 F1         -5.4606   -9.3805    1.6655 F         1 <0>        -0.1734
     42 F2         -4.9404   -7.8256    3.2563 F         1 <0>        -0.1744
     43 F3         -6.2485   -7.2445    1.4758 F         1 <0>        -0.1717
     44 H1          2.5820    0.8145    0.7902 H         1 <0>         0.0757
     45 H2          1.6088    1.3884   -0.5852 H         1 <0>         0.0634
     46 H3          0.9613    1.4954    1.0694 H         1 <0>         0.1030
     47 H4          1.4542   -0.6254   -1.8308 H         1 <0>         0.1400
     48 H5          0.4737   -2.8660   -2.0798 H         1 <0>         0.1357
     49 H6         -0.6293   -2.8588    2.0503 H         1 <0>         0.1366
     50 H7         -0.5245   -1.9409    3.6419 H         1 <0>         0.4142
     51 H8         -0.3816    1.5455    4.2667 H         1 <0>         0.1863
     52 H9          0.2518   -2.2853    6.0793 H         1 <0>         0.1721
     53 H10        -0.0746    2.2564    8.7511 H         1 <0>         0.4258
     54 H11         1.8057   -0.7191    8.7261 H         1 <0>         0.1373
     55 H12         2.3844   -2.0574   10.7083 H         1 <0>         0.1242
     56 H13        -0.2728    0.3080   13.0808 H         1 <0>         0.1261
     57 H14        -0.8449    1.6517   11.1002 H         1 <0>         0.1310
     58 H15         1.4038   -1.0720   15.1488 H         1 <0>         0.0864
     59 H16        -0.1367   -0.8647   14.2742 H         1 <0>         0.1258
     60 H17        -0.1882   -2.7650   15.9310 H         1 <0>         0.1401
     61 H18        -0.5024   -3.2857   14.2580 H         1 <0>         0.1321
     62 H19         2.7130   -4.7929   13.7152 H         1 <0>         0.1403
     63 H20         1.1174   -4.4180   13.0209 H         1 <0>         0.1321
     64 H21         2.7685   -2.9063   12.0479 H         1 <0>         0.1264
     65 H22         3.3327   -2.4275   13.6707 H         1 <0>         0.0861
     66 H23         0.1714   -5.5136   14.9897 H         1 <0>         0.1214
     67 H24         1.8025   -5.7569   15.6594 H         1 <0>         0.1247
     68 H25         0.5705   -4.8917   16.6090 H         1 <0>         0.1248
     69 H26        -0.2913   -4.9164   -0.7850 H         1 <0>         0.4136
     70 H27        -0.7867   -6.6874   -0.8899 H         1 <0>         0.1378
     71 H28        -1.6627   -8.9830   -0.9955 H         1 <0>         0.1476
     72 H29        -3.6738   -9.5973    0.2815 H         1 <0>         0.1483
     73 H30        -3.9545   -5.6230    1.7985 H         1 <0>         0.1495
     74 H31         2.1124   -3.3944   15.5841 H         1 <0>         0.4244
@<TRIPOS>BOND
     1    1    2 1
     2    1   44 1
     3    1   45 1
     4    1   46 1
     5    2    7 ar
     6    2    3 ar
     7    3    4 ar
     8    3   47 1
     9    4    5 ar
    10    4   48 1
    11    5    6 ar
    12    5   31 1
    13    6    7 ar
    14    6   49 1
    15    7    8 1
    16    8    9 2
    17    8   10 am
    18   10   11 1
    19   10   50 1
    20   11   16 ar
    21   11   12 ar
    22   12   13 ar
    23   12   51 1
    24   13   14 ar
    25   14   15 ar
    26   14   17 1
    27   15   16 ar
    28   16   52 1
    29   17   18 1
    30   17   53 1
    31   18   23 ar
    32   18   19 ar
    33   19   20 ar
    34   19   54 1
    35   20   21 ar
    36   20   55 1
    37   21   22 ar
    38   21   24 1
    39   22   23 ar
    40   22   56 1
    41   23   57 1
    42   24   29 1
    43   24   25 1
    44   25   26 1
    45   25   58 1
    46   25   59 1
    47   26   27 1
    48   26   60 1
    49   26   61 1
    50   27   28 1
    51   27   30 1
    52   27   74 1
    53   28   29 1
    54   28   62 1
    55   28   63 1
    56   29   64 1
    57   29   65 1
    58   30   66 1
    59   30   67 1
    60   30   68 1
    61   31   32 am
    62   31   69 1
    63   32   33 2
    64   32   34 1
    65   34   39 ar
    66   34   35 ar
    67   35   36 ar
    68   35   70 1
    69   36   37 ar
    70   36   71 1
    71   37   38 ar
    72   37   72 1
    73   38   39 ar
    74   38   40 1
    75   39   73 1
    76   40   41 1
    77   40   42 1
    78   40   43 1
@<TRIPOS>MOLECULE
CHEMBL272888__1
   73    77     0     0     0
SMALL
USER_CHARGES

@<TRIPOS>ATOM
      1 C1          1.5652    0.9068    0.3835 C.3       1 <0>        -0.1304
      2 C2          0.9623   -0.4664    0.2355 C.ar      1 <0>        -0.0251
      3 C3          0.9901   -1.1041   -0.9883 C.ar      1 <0>        -0.1091
      4 C4          0.4386   -2.3635   -1.1293 C.ar      1 <0>        -0.1051
      5 C5         -0.1475   -2.9967   -0.0394 C.ar      1 <0>         0.1291
      6 C6         -0.1802   -2.3651    1.1940 C.ar      1 <0>        -0.0797
      7 C7          0.3808   -1.0958    1.3374 C.ar      1 <0>        -0.1243
      8 C8          0.3547   -0.4174    2.6506 C.2       1 <0>         0.5651
      9 O1          0.7732    0.7191    2.7561 O.2       1 <0>        -0.5123
     10 N1         -0.1331   -1.0589    3.7309 N.am      1 <0>        -0.6539
     11 C9         -0.0697   -0.4536    4.9931 C.ar      1 <0>        -0.0183
     12 C10        -0.2177    0.9236    5.1312 C.ar      1 <0>         0.1998
     13 N2         -0.1520    1.4600    6.3383 N.ar      1 <0>        -0.5459
     14 C11         0.0516    0.7038    7.4066 C.ar      1 <0>         0.5460
     15 N3          0.1972   -0.6094    7.3131 N.ar      1 <0>        -0.5356
     16 C12         0.1370   -1.2159    6.1394 C.ar      1 <0>         0.1730
     17 N4          0.1144    1.3029    8.6558 N.pl3     1 <0>        -0.6338
     18 C13         0.4451    0.5396    9.7828 C.ar      1 <0>         0.1035
     19 C14         1.3558   -0.5029    9.6724 C.ar      1 <0>        -0.0608
     20 C15         1.6819   -1.2553   10.7833 C.ar      1 <0>        -0.1798
     21 C16         1.0994   -0.9692   12.0111 C.ar      1 <0>         0.2071
     22 C17         0.1890    0.0737   12.1215 C.ar      1 <0>        -0.1791
     23 C18        -0.1333    0.8291   11.0116 C.ar      1 <0>        -0.0945
     24 N5          1.4295   -1.7322   13.1370 N.pl3     1 <0>        -0.6324
     25 C19         0.7310   -1.5320   14.4158 C.3       1 <0>         0.1270
     26 C20         0.2392   -2.8930   14.9200 C.3       1 <0>         0.0383
     27 N6          1.3689   -3.8306   14.9694 N.3       1 <0>        -0.5425
     28 C21         1.9233   -4.0681   13.6300 C.3       1 <0>         0.0381
     29 C22         2.4800   -2.7595   13.0712 C.3       1 <0>         0.1262
     30 C23         0.9769   -5.0940   15.6084 C.3       1 <0>         0.0243
     31 N7         -0.7047   -4.2712   -0.1874 N.am      1 <0>        -0.6672
     32 C24        -1.8022   -4.6127    0.5163 C.2       1 <0>         0.5628
     33 O2         -2.3629   -3.7849    1.2078 O.2       1 <0>        -0.5093
     34 C25        -2.3242   -5.9939    0.4475 C.ar      1 <0>        -0.1395
     35 C26        -1.6793   -6.9486   -0.3411 C.ar      1 <0>        -0.0539
     36 C27        -2.1716   -8.2357   -0.4010 C.ar      1 <0>        -0.1227
     37 C28        -3.3020   -8.5816    0.3184 C.ar      1 <0>        -0.0417
     38 C29        -3.9458   -7.6405    1.1017 C.ar      1 <0>        -0.1883
     39 C30        -3.4605   -6.3509    1.1750 C.ar      1 <0>        -0.0065
     40 C31        -5.1762   -8.0262    1.8817 C.3       1 <0>         0.5099
     41 F1         -5.4686   -9.3752    1.6542 F         1 <0>        -0.1742
     42 F2         -4.9460   -7.8226    3.2465 F         1 <0>        -0.1726
     43 F3         -6.2562   -7.2388    1.4684 F         1 <0>        -0.1724
     44 H1          2.5756    0.8189    0.7829 H         1 <0>         0.0756
     45 H2          1.6008    1.3949   -0.5905 H         1 <0>         0.0616
     46 H3          0.9554    1.4998    1.0650 H         1 <0>         0.1038
     47 H4          1.4441   -0.6171   -1.8387 H         1 <0>         0.1385
     48 H5          0.4627   -2.8572   -2.0895 H         1 <0>         0.1342
     49 H6         -0.6351   -2.8553    2.0420 H         1 <0>         0.1374
     50 H7         -0.5281   -1.9396    3.6346 H         1 <0>         0.4127
     51 H8         -0.3835    1.5458    4.2641 H         1 <0>         0.1827
     52 H9          0.2512   -2.2876    6.0706 H         1 <0>         0.1701
     53 H10        -0.0707    2.2505    8.7491 H         1 <0>         0.4219
     54 H11         1.8088   -0.7254    8.7176 H         1 <0>         0.1301
     55 H12         2.3896   -2.0666   10.6973 H         1 <0>         0.1237
     56 H13        -0.2640    0.2962   13.0763 H         1 <0>         0.1254
     57 H14        -0.8382    1.6428   11.0983 H         1 <0>         0.1237
     58 H15         1.4166   -1.0979   15.1435 H         1 <0>         0.0693
     59 H16        -0.1199   -0.8670   14.2680 H         1 <0>         0.0861
     60 H17        -0.1836   -2.7799   15.9183 H         1 <0>         0.0854
     61 H18        -0.5235   -3.2777   14.2430 H         1 <0>         0.0384
     62 H19         2.7220   -4.8072   13.6927 H         1 <0>         0.0855
     63 H20         1.1372   -4.4365   12.9709 H         1 <0>         0.0381
     64 H21         2.7848   -2.9056   12.0350 H         1 <0>         0.0867
     65 H22         3.3369   -2.4456   13.6672 H         1 <0>         0.0691
     66 H23         0.1669   -5.5522   15.0409 H         1 <0>         0.0256
     67 H24         1.8317   -5.7698   15.6319 H         1 <0>         0.0701
     68 H25         0.6411   -4.8973   16.6266 H         1 <0>         0.0705
     69 H26        -0.3012   -4.9091   -0.7966 H         1 <0>         0.4128
     70 H27        -0.7972   -6.6798   -0.9033 H         1 <0>         0.1375
     71 H28        -1.6739   -8.9751   -1.0110 H         1 <0>         0.1468
     72 H29        -3.6836   -9.5907    0.2677 H         1 <0>         0.1476
     73 H30        -3.9614   -5.6183    1.7905 H         1 <0>         0.1501
@<TRIPOS>BOND
     1    1    2 1
     2    1   44 1
     3    1   45 1
     4    1   46 1
     5    2    7 ar
     6    2    3 ar
     7    3    4 ar
     8    3   47 1
     9    4    5 ar
    10    4   48 1
    11    5    6 ar
    12    5   31 1
    13    6    7 ar
    14    6   49 1
    15    7    8 1
    16    8    9 2
    17    8   10 am
    18   10   11 1
    19   10   50 1
    20   11   16 ar
    21   11   12 ar
    22   12   13 ar
    23   12   51 1
    24   13   14 ar
    25   14   15 ar
    26   14   17 1
    27   15   16 ar
    28   16   52 1
    29   17   18 1
    30   17   53 1
    31   18   23 ar
    32   18   19 ar
    33   19   20 ar
    34   19   54 1
    35   20   21 ar
    36   20   55 1
    37   21   22 ar
    38   21   24 1
    39   22   23 ar
    40   22   56 1
    41   23   57 1
    42   24   29 1
    43   24   25 1
    44   25   26 1
    45   25   58 1
    46   25   59 1
    47   26   27 1
    48   26   60 1
    49   26   61 1
    50   27   28 1
    51   27   30 1
    52   28   29 1
    53   28   62 1
    54   28   63 1
    55   29   64 1
    56   29   65 1
    57   30   66 1
    58   30   67 1
    59   30   68 1
    60   31   32 am
    61   31   69 1
    62   32   33 2
    63   32   34 1
    64   34   39 ar
    65   34   35 ar
    66   35   36 ar
    67   35   70 1
    68   36   37 ar
    69   36   71 1
    70   37   38 ar
    71   37   72 1
    72   38   39 ar
    73   38   40 1
    74   39   73 1
    75   40   41 1
    76   40   42 1
    77   40   43 1
@<TRIPOS>MOLECULE
CHEMBL459896
   59    63     0     0     0
SMALL
USER_CHARGES

@<TRIPOS>ATOM
      1 C1         -0.2628    0.6193   -1.6549 C.3       1 <0>         0.0263
      2 O1         -0.0254   -0.7230   -1.2261 O.3       1 <0>        -0.3181
      3 C2          1.0071   -1.3853   -1.8134 C.ar      1 <0>         0.1062
      4 C3          1.7779   -0.7553   -2.7764 C.ar      1 <0>        -0.1854
      5 C4          2.8274   -1.4299   -3.3727 C.ar      1 <0>        -0.0885
      6 C5          3.1110   -2.7338   -3.0106 C.ar      1 <0>        -0.1322
      7 C6          2.3469   -3.3698   -2.0506 C.ar      1 <0>        -0.1085
      8 C7          1.2957   -2.6974   -1.4436 C.ar      1 <0>         0.1191
      9 N1          0.5243   -3.3370   -0.4668 N.pl3     1 <0>        -0.6652
     10 C8          0.1050   -4.6512   -0.6605 C.ar      1 <0>         0.2231
     11 C9          0.3146   -5.2771   -1.8718 C.ar      1 <0>        -0.1937
     12 C10        -0.0999   -6.5894   -2.0755 C.ar      1 <0>        -0.0479
     13 C11        -0.7227   -7.2912   -1.0884 C.ar      1 <0>        -0.1614
     14 C12        -0.9555   -6.6904    0.1608 C.ar      1 <0>        -0.0064
     15 C13        -0.5329   -5.3562    0.3826 C.ar      1 <0>        -0.0839
     16 C14        -0.7607   -4.7572    1.6318 C.ar      1 <0>        -0.0639
     17 C15        -1.3786   -5.4636    2.6167 C.ar      1 <0>        -0.1420
     18 C16        -1.7916   -6.7825    2.4036 C.ar      1 <0>         0.0477
     19 C17        -1.5961   -7.3912    1.1961 C.ar      1 <0>        -0.0885
     20 O2         -2.4058   -7.4632    3.4062 O.3       1 <0>        -0.2128
     21 C18        -1.6286   -8.1581    4.2732 C.ar      1 <0>         0.2838
     22 C19        -0.2485   -8.1354    4.1698 C.ar      1 <0>        -0.2623
     23 C20         0.5215   -8.8571    5.0724 C.ar      1 <0>         0.2247
     24 N2         -0.0222   -9.5691    6.0317 N.ar      1 <0>        -0.4824
     25 C21        -1.3491   -9.6363    6.1898 C.ar      1 <0>         0.1821
     26 C22        -2.2023   -8.9225    5.3133 C.ar      1 <0>        -0.0910
     27 C23        -3.5935   -8.9901    5.4853 C.ar      1 <0>        -0.1358
     28 C24        -4.1128   -9.7391    6.5010 C.ar      1 <0>         0.1339
     29 C25        -3.2702  -10.4416    7.3750 C.ar      1 <0>         0.2162
     30 C26        -1.9144  -10.4039    7.2222 C.ar      1 <0>        -0.2364
     31 O3         -3.8113  -11.1797    8.3793 O.3       1 <0>        -0.2778
     32 C27        -2.9027  -11.8730    9.2371 C.3       1 <0>         0.0118
     33 O4         -5.4607   -9.8046    6.6677 O.3       1 <0>        -0.2868
     34 C28        -6.2651   -9.0666    5.7456 C.3       1 <0>         0.0149
     35 H1          0.6222    1.2249   -1.4599 H         1 <0>         0.0585
     36 H2         -0.4799    0.6265   -2.7230 H         1 <0>         0.0589
     37 H3         -1.1119    1.0304   -1.1088 H         1 <0>         0.1031
     38 H4          1.5589    0.2630   -3.0619 H         1 <0>         0.1351
     39 H5          3.4270   -0.9370   -4.1237 H         1 <0>         0.1312
     40 H6          3.9315   -3.2567   -3.4794 H         1 <0>         0.1320
     41 H7          2.5705   -4.3885   -1.7699 H         1 <0>         0.1358
     42 H8          0.2816   -2.8652    0.3453 H         1 <0>         0.4118
     43 H9          0.8057   -4.7422   -2.6713 H         1 <0>         0.1381
     44 H10         0.0748   -7.0592   -3.0321 H         1 <0>         0.1323
     45 H11        -1.0379   -8.3089   -1.2655 H         1 <0>         0.1311
     46 H12        -0.4463   -3.7395    1.8103 H         1 <0>         0.1349
     47 H13        -1.5522   -4.9996    3.5764 H         1 <0>         0.1359
     48 H14        -1.9204   -8.4099    1.0427 H         1 <0>         0.1428
     49 H15         0.2274   -7.5591    3.3902 H         1 <0>         0.1849
     50 H16         1.5975   -8.8322    4.9822 H         1 <0>         0.2118
     51 H17        -4.2497   -8.4519    4.8175 H         1 <0>         0.1726
     52 H18        -1.2774  -10.9505    7.9018 H         1 <0>         0.1710
     53 H19        -2.3080  -12.5712    8.6482 H         1 <0>         0.0693
     54 H20        -2.2431  -11.1548    9.7242 H         1 <0>         0.0691
     55 H21        -3.4640  -12.4218    9.9934 H         1 <0>         0.1214
     56 H22        -6.0775   -9.4239    4.7330 H         1 <0>         0.0671
     57 H23        -7.3182   -9.2050    5.9904 H         1 <0>         0.1185
     58 H24        -6.0132   -8.0081    5.8099 H         1 <0>         0.0670
     59 H25         0.5522  -10.0588    6.6409 H         1 <0>         0.4471
@<TRIPOS>BOND
     1    1    2 1
     2    1   35 1
     3    1   36 1
     4    1   37 1
     5    2    3 1
     6    3    8 ar
     7    3    4 ar
     8    4    5 ar
     9    4   38 1
    10    5    6 ar
    11    5   39 1
    12    6    7 ar
    13    6   40 1
    14    7    8 ar
    15    7   41 1
    16    8    9 1
    17    9   10 1
    18    9   42 1
    19   10   15 ar
    20   10   11 ar
    21   11   12 ar
    22   11   43 1
    23   12   13 ar
    24   12   44 1
    25   13   14 ar
    26   13   45 1
    27   14   19 ar
    28   14   15 ar
    29   15   16 ar
    30   16   17 ar
    31   16   46 1
    32   17   18 ar
    33   17   47 1
    34   18   19 ar
    35   18   20 1
    36   19   48 1
    37   20   21 1
    38   21   26 ar
    39   21   22 ar
    40   22   23 ar
    41   22   49 1
    42   23   24 ar
    43   23   50 1
    44   24   25 ar
    45   24   59 1
    46   25   30 ar
    47   25   26 ar
    48   26   27 ar
    49   27   28 ar
    50   27   51 1
    51   28   29 ar
    52   28   33 1
    53   29   30 ar
    54   29   31 1
    55   30   52 1
    56   31   32 1
    57   32   53 1
    58   32   54 1
    59   32   55 1
    60   33   34 1
    61   34   56 1
    62   34   57 1
    63   34   58 1
@<TRIPOS>MOLECULE
CHEMBL477611
   49    52     0     0     0
SMALL
USER_CHARGES

@<TRIPOS>ATOM
      1 C1          6.5141   -5.6021   -1.0267 C.3       1 <0>        -0.0838
      2 C2          5.8604   -5.2236   -2.3307 C.2       1 <0>         0.1157
      3 C3          4.4795   -4.9719   -2.5196 C.ar      1 <0>        -0.1997
      4 C4          3.3708   -4.9848   -1.6625 C.ar      1 <0>         0.0150
      5 C5          2.1323   -4.6911   -2.1483 C.ar      1 <0>        -0.1974
      6 C6          1.9537   -4.3763   -3.4968 C.ar      1 <0>         0.2446
      7 C7          3.0332   -4.3579   -4.3607 C.ar      1 <0>        -0.2145
      8 C8          4.3049   -4.6546   -3.8803 C.ar      1 <0>         0.1689
      9 N1          5.5462   -4.7207   -4.4604 N.pl3     1 <0>        -0.5063
     10 H1          5.7482   -4.5523   -5.3940 H         1 <0>         0.4413
     11 N2          6.4717   -5.0683   -3.4688 N.2       1 <0>        -0.2513
     12 N3          0.6753   -4.0782   -3.9768 N.pl3     1 <0>        -0.5901
     13 C9         -0.4878   -4.2144   -3.0964 C.3       1 <0>         0.0909
     14 C10         0.5079   -3.6537   -5.2858 C.ar      1 <0>         0.5411
     15 C11         0.6516   -2.3043   -5.6171 C.ar      1 <0>        -0.2194
     16 C12         0.4757   -1.9270   -6.9339 C.ar      1 <0>         0.2167
     17 N4          0.1780   -2.8487   -7.8382 N.ar      1 <0>        -0.5406
     18 C13         0.0477   -4.1218   -7.4956 C.ar      1 <0>         0.6254
     19 N5          0.2137   -4.5255   -6.2450 N.ar      1 <0>        -0.5160
     20 N6         -0.2643   -5.0549   -8.4707 N.pl3     1 <0>        -0.6068
     21 C14        -0.5151   -6.3829   -8.1126 C.ar      1 <0>         0.0959
     22 C15        -1.1201   -6.6736   -6.8963 C.ar      1 <0>        -0.0422
     23 C16        -1.3664   -7.9863   -6.5457 C.ar      1 <0>        -0.1146
     24 C17        -1.0110   -9.0112   -7.4037 C.ar      1 <0>        -0.0035
     25 C18        -0.4087   -8.7254   -8.6150 C.ar      1 <0>        -0.6553
     26 C19        -0.1651   -7.4141   -8.9746 C.ar      1 <0>        -0.0212
     27 S1          0.0421  -10.0348   -9.7044 S.o2      1 <0>         2.7011
     28 O1          1.0837   -9.5347  -10.5314 O.2       1 <0>        -0.9563
     29 O2          0.1986  -11.1961   -8.9006 O.2       1 <0>        -0.9487
     30 N7         -1.2549  -10.3161  -10.6949 N.pl3     1 <0>        -1.2472
     31 H2          6.8193   -4.6993   -0.4977 H         1 <0>         0.0874
     32 H3          5.8062   -6.1604   -0.4140 H         1 <0>         0.0846
     33 H4          7.3895   -6.2205   -1.2252 H         1 <0>         0.0829
     34 H5          3.4980   -5.2277   -0.6178 H         1 <0>         0.1420
     35 H6          1.2807   -4.7022   -1.4842 H         1 <0>         0.1396
     36 H7          2.8900   -4.1145   -5.4031 H         1 <0>         0.1084
     37 H8         -0.6620   -3.2724   -2.5763 H         1 <0>         0.0767
     38 H9         -1.3654   -4.4690   -3.6907 H         1 <0>         0.0743
     39 H10        -0.3013   -5.0029   -2.3674 H         1 <0>         0.0968
     40 H11         0.8944   -1.5727   -4.8607 H         1 <0>         0.1997
     41 H12         0.5794   -0.8917   -7.2235 H         1 <0>         0.2290
     42 H13        -0.3087   -4.7870   -9.4019 H         1 <0>         0.4392
     43 H14        -1.3973   -5.8738   -6.2256 H         1 <0>         0.1423
     44 H15        -1.8368   -8.2129   -5.6003 H         1 <0>         0.1498
     45 H16        -1.2041  -10.0371   -7.1268 H         1 <0>         0.1572
     46 H17         0.3010   -7.1913   -9.9230 H         1 <0>         0.1538
     47 H18        -2.0634   -9.7892  -10.5968 H         1 <0>         0.4169
     48 H19        -1.2062  -11.0079  -11.3731 H         1 <0>         0.4268
     49 H20         0.0534   -2.5875   -8.7640 H         1 <0>         0.4510
@<TRIPOS>BOND
     1    1    2 1
     2    1   31 1
     3    1   32 1
     4    1   33 1
     5    2   11 2
     6    2    3 1
     7    3    8 ar
     8    3    4 ar
     9    4    5 ar
    10    4   34 1
    11    5    6 ar
    12    5   35 1
    13    6    7 ar
    14    6   12 1
    15    7    8 ar
    16    7   36 1
    17    8    9 1
    18    9   10 1
    19    9   11 1
    20   12   13 1
    21   12   14 1
    22   13   37 1
    23   13   38 1
    24   13   39 1
    25   14   19 ar
    26   14   15 ar
    27   15   16 ar
    28   15   40 1
    29   16   17 ar
    30   16   41 1
    31   17   18 ar
    32   17   49 1
    33   18   19 ar
    34   18   20 1
    35   20   21 1
    36   20   42 1
    37   21   26 ar
    38   21   22 ar
    39   22   23 ar
    40   22   43 1
    41   23   24 ar
    42   23   44 1
    43   24   25 ar
    44   24   45 1
    45   25   26 ar
    46   25   27 1
    47   26   46 1
    48   27   28 2
    49   27   29 2
    50   27   30 1
    51   30   47 1
    52   30   48 1
@<TRIPOS>MOLECULE
CHEMBL514838
   52    55     0     0     0
SMALL
USER_CHARGES

@<TRIPOS>ATOM
      1 C1          6.4765   -5.6390   -0.8789 C.3       1 <0>        -0.1027
      2 C2          5.8167   -5.2680   -2.1820 C.2       1 <0>         0.1333
      3 C3          4.4692   -5.0236   -2.3707 C.ar      1 <0>        -0.2349
      4 C4          3.3326   -5.0248   -1.5331 C.ar      1 <0>         0.0199
      5 C5          2.1164   -4.7315   -2.0535 C.ar      1 <0>        -0.1999
      6 C6          1.9516   -4.4238   -3.4122 C.ar      1 <0>         0.2415
      7 C7          3.0071   -4.4056   -4.2744 C.ar      1 <0>        -0.1850
      8 C8          4.3009   -4.7015   -3.7965 C.ar      1 <0>         0.1369
      9 N1          5.5000   -4.7696   -4.3466 N.2       1 <0>        -0.3193
     10 N2          6.4333   -5.1111   -3.3612 N.pl3     1 <0>        -0.3190
     11 C9          7.8715   -5.2760   -3.5864 C.3       1 <0>         0.0831
     12 N3          0.6731   -4.1290   -3.8940 N.pl3     1 <0>        -0.5928
     13 C10        -0.4901   -4.2621   -3.0134 C.3       1 <0>         0.0919
     14 C11         0.5058   -3.7107   -5.2050 C.ar      1 <0>         0.5438
     15 C12         0.6483   -2.3627   -5.5424 C.ar      1 <0>        -0.2179
     16 C13         0.4730   -1.9917   -6.8612 C.ar      1 <0>         0.2152
     17 N4          0.1771   -2.9180   -7.7614 N.ar      1 <0>        -0.5405
     18 C14         0.0479   -4.1896   -7.4130 C.ar      1 <0>         0.6260
     19 N5          0.2129   -4.5872   -6.1603 N.ar      1 <0>        -0.5160
     20 N6         -0.2622   -5.1276   -8.3840 N.pl3     1 <0>        -0.6084
     21 C15        -0.5121   -6.4541   -8.0199 C.ar      1 <0>         0.0982
     22 C16        -1.1171   -6.7397   -6.8024 C.ar      1 <0>        -0.0420
     23 C17        -1.3625   -8.0509   -6.4458 C.ar      1 <0>        -0.1148
     24 C18        -1.0063   -9.0795   -7.2991 C.ar      1 <0>        -0.0048
     25 C19        -0.4041   -8.7987   -8.5117 C.ar      1 <0>        -0.6553
     26 C20        -0.1614   -7.4890   -8.8771 C.ar      1 <0>        -0.0217
     27 S1          0.0476  -10.1128   -9.5950 S.o2      1 <0>         2.7010
     28 O1          1.0890   -9.6158  -10.4243 O.2       1 <0>        -0.9562
     29 O2          0.2049  -11.2704   -8.7860 O.2       1 <0>        -0.9495
     30 N7         -1.2491  -10.3995  -10.5843 N.pl3     1 <0>        -1.2474
     31 H1          6.7826   -4.7330   -0.3558 H         1 <0>         0.0927
     32 H2          5.7721   -6.1953   -0.2604 H         1 <0>         0.0947
     33 H3          7.3520   -6.2570   -1.0779 H         1 <0>         0.0808
     34 H4          3.4320   -5.2587   -0.4834 H         1 <0>         0.1355
     35 H5          1.2520   -4.7350   -1.4060 H         1 <0>         0.1347
     36 H6          2.8539   -4.1663   -5.3164 H         1 <0>         0.1073
     37 H7          8.0812   -6.3123   -3.8516 H         1 <0>         0.0888
     38 H8          8.1895   -4.6218   -4.3981 H         1 <0>         0.0996
     39 H9          8.4137   -5.0168   -2.6771 H         1 <0>         0.0982
     40 H10        -0.6653   -3.3179   -2.4977 H         1 <0>         0.0747
     41 H11        -1.3673   -4.5202   -3.6067 H         1 <0>         0.0726
     42 H12        -0.3032   -5.0471   -2.2807 H         1 <0>         0.0956
     43 H13         0.8896   -1.6274   -4.7892 H         1 <0>         0.1993
     44 H14         0.5758   -0.9577   -7.1555 H         1 <0>         0.2283
     45 H15        -0.3059   -4.8641   -9.3165 H         1 <0>         0.4387
     46 H16        -1.3948   -5.9370   -6.1353 H         1 <0>         0.1427
     47 H17        -1.8328   -8.2736   -5.4994 H         1 <0>         0.1493
     48 H18        -1.1988  -10.1042   -7.0176 H         1 <0>         0.1564
     49 H19         0.3047   -7.2701   -9.8265 H         1 <0>         0.1537
     50 H20        -2.0579   -9.8726  -10.4887 H         1 <0>         0.4168
     51 H21        -1.1998  -11.0943  -11.2594 H         1 <0>         0.4264
     52 H22         0.0529   -2.6612   -8.6885 H         1 <0>         0.4503
@<TRIPOS>BOND
     1    1    2 1
     2    1   31 1
     3    1   32 1
     4    1   33 1
     5    2   10 1
     6    2    3 2
     7    3    8 ar
     8    3    4 ar
     9    4    5 ar
    10    4   34 1
    11    5    6 ar
    12    5   35 1
    13    6    7 ar
    14    6   12 1
    15    7    8 ar
    16    7   36 1
    17    8    9 2
    18    9   10 1
    19   10   11 1
    20   11   37 1
    21   11   38 1
    22   11   39 1
    23   12   13 1
    24   12   14 1
    25   13   40 1
    26   13   41 1
    27   13   42 1
    28   14   19 ar
    29   14   15 ar
    30   15   16 ar
    31   15   43 1
    32   16   17 ar
    33   16   44 1
    34   17   18 ar
    35   17   52 1
    36   18   19 ar
    37   18   20 1
    38   20   21 1
    39   20   45 1
    40   21   26 ar
    41   21   22 ar
    42   22   23 ar
    43   22   46 1
    44   23   24 ar
    45   23   47 1
    46   24   25 ar
    47   24   48 1
    48   25   26 ar
    49   25   27 1
    50   26   49 1
    51   27   28 2
    52   27   29 2
    53   27   30 1
    54   30   50 1
    55   30   51 1
@<TRIPOS>MOLECULE
CHEMBL476572
   62    66     0     0     0
SMALL
USER_CHARGES

@<TRIPOS>ATOM
      1 C1          0.4792    1.6855    0.6813 C.3       1 <0>        -0.1080
      2 C2          0.4306    1.3175   -0.7792 C.2       1 <0>         0.1375
      3 C3          0.3526    0.0365   -1.2930 C.ar      1 <0>        -0.2338
      4 C4          0.2958   -1.2574   -0.7310 C.ar      1 <0>         0.0199
      5 C5          0.2222   -2.3387   -1.5443 C.ar      1 <0>        -0.2004
      6 C6          0.2006   -2.2094   -2.9410 C.ar      1 <0>         0.2405
      7 C7          0.2530   -0.9897   -3.5471 C.ar      1 <0>        -0.1839
      8 C8          0.3301    0.1767   -2.7575 C.ar      1 <0>         0.1368
      9 N1          0.3931    1.4704   -3.0174 N.2       1 <0>        -0.3138
     10 N2          0.4494    2.1744   -1.8091 N.pl3     1 <0>        -0.3097
     11 C9          0.5219    3.6326   -1.6883 C.3       1 <0>         0.1615
     12 C10         1.9656    4.0646   -1.6775 C.ar      1 <0>        -0.1255
     13 C11         2.6503    4.1575   -0.4803 C.ar      1 <0>        -0.1025
     14 C12         3.9746    4.5537   -0.4704 C.ar      1 <0>        -0.1194
     15 C13         4.6143    4.8567   -1.6578 C.ar      1 <0>        -0.1026
     16 C14         3.9298    4.7630   -2.8551 C.ar      1 <0>        -0.1206
     17 C15         2.6068    4.3626   -2.8654 C.ar      1 <0>        -0.0885
     18 N3          0.1238   -3.3600   -3.7308 N.pl3     1 <0>        -0.5929
     19 C16         0.1899   -4.6833   -3.1056 C.3       1 <0>         0.0921
     20 C17        -0.0148   -3.2491   -5.1056 C.ar      1 <0>         0.5443
     21 C18        -1.2790   -3.0985   -5.6805 C.ar      1 <0>        -0.2177
     22 C19        -1.3692   -2.9913   -7.0545 C.ar      1 <0>         0.2148
     23 N4         -0.2627   -3.0341   -7.7821 N.ar      1 <0>        -0.5405
     24 C20         0.9235   -3.1777   -7.2100 C.ar      1 <0>         0.6259
     25 N5          1.0535   -3.2789   -5.8957 N.ar      1 <0>        -0.5160
     26 N6          2.0567   -3.2179   -8.0058 N.pl3     1 <0>        -0.6086
     27 C21         3.3046   -3.4801   -7.4325 C.ar      1 <0>         0.0985
     28 C22         3.4028   -4.3281   -6.3365 C.ar      1 <0>        -0.0419
     29 C23         4.6368   -4.5849   -5.7727 C.ar      1 <0>        -0.1147
     30 C24         5.7742   -3.9986   -6.2975 C.ar      1 <0>        -0.0049
     31 C25         5.6800   -3.1540   -7.3882 C.ar      1 <0>        -0.6553
     32 C26         4.4494   -2.8978   -7.9608 C.ar      1 <0>        -0.0218
     33 S1          7.1321   -2.4096   -8.0529 S.o2      1 <0>         2.7008
     34 O1          6.7117   -1.2337   -8.7308 O.2       1 <0>        -0.9562
     35 O2          8.0911   -2.3830   -7.0046 O.2       1 <0>        -0.9495
     36 N7          7.7234   -3.4369   -9.2094 N.pl3     1 <0>        -1.2474
     37 H1         -0.5353    1.8231    1.0554 H         1 <0>         0.0933
     38 H2          0.9677    0.8878    1.2409 H         1 <0>         0.0950
     39 H3          1.0405    2.6118    0.8041 H         1 <0>         0.0802
     40 H4          0.3112   -1.3847    0.3414 H         1 <0>         0.1345
     41 H5          0.1795   -3.3250   -1.1063 H         1 <0>         0.1339
     42 H6          0.2356   -0.9168   -4.6245 H         1 <0>         0.1065
     43 H7          0.0112    4.0931   -2.5341 H         1 <0>         0.1125
     44 H8          0.0423    3.9446   -0.7606 H         1 <0>         0.1109
     45 H9          2.1505    3.9207    0.4474 H         1 <0>         0.1251
     46 H10         4.5094    4.6270    0.4651 H         1 <0>         0.1289
     47 H11         5.6487    5.1670   -1.6499 H         1 <0>         0.1279
     48 H12         4.4295    5.0001   -3.7827 H         1 <0>         0.1271
     49 H13         2.0731    4.2858   -3.8012 H         1 <0>         0.1243
     50 H14        -0.8162   -5.0139   -2.8476 H         1 <0>         0.0745
     51 H15         0.6380   -5.3921   -3.8020 H         1 <0>         0.0723
     52 H16         0.7972   -4.6283   -2.2021 H         1 <0>         0.0954
     53 H17        -2.1656   -3.0669   -5.0646 H         1 <0>         0.1993
     54 H18        -2.3315   -2.8742   -7.5307 H         1 <0>         0.2283
     55 H19         1.9843   -3.0640   -8.9608 H         1 <0>         0.4386
     56 H20         2.5150   -4.7857   -5.9258 H         1 <0>         0.1427
     57 H21         4.7139   -5.2441   -4.9207 H         1 <0>         0.1492
     58 H22         6.7381   -4.2005   -5.8542 H         1 <0>         0.1563
     59 H23         4.3770   -2.2418   -8.8157 H         1 <0>         0.1536
     60 H24         7.2647   -4.2705   -9.3979 H         1 <0>         0.4169
     61 H25         8.5285   -3.2049   -9.6983 H         1 <0>         0.4264
     62 H26        -0.3220   -2.9594   -8.7474 H         1 <0>         0.4502
@<TRIPOS>BOND
     1    1    2 1
     2    1   37 1
     3    1   38 1
     4    1   39 1
     5    2   10 1
     6    2    3 2
     7    3    8 ar
     8    3    4 ar
     9    4    5 ar
    10    4   40 1
    11    5    6 ar
    12    5   41 1
    13    6    7 ar
    14    6   18 1
    15    7    8 ar
    16    7   42 1
    17    8    9 2
    18    9   10 1
    19   10   11 1
    20   11   12 1
    21   11   43 1
    22   11   44 1
    23   12   17 ar
    24   12   13 ar
    25   13   14 ar
    26   13   45 1
    27   14   15 ar
    28   14   46 1
    29   15   16 ar
    30   15   47 1
    31   16   17 ar
    32   16   48 1
    33   17   49 1
    34   18   19 1
    35   18   20 1
    36   19   50 1
    37   19   51 1
    38   19   52 1
    39   20   25 ar
    40   20   21 ar
    41   21   22 ar
    42   21   53 1
    43   22   23 ar
    44   22   54 1
    45   23   24 ar
    46   23   62 1
    47   24   25 ar
    48   24   26 1
    49   26   27 1
    50   26   55 1
    51   27   32 ar
    52   27   28 ar
    53   28   29 ar
    54   28   56 1
    55   29   30 ar
    56   29   57 1
    57   30   31 ar
    58   30   58 1
    59   31   32 ar
    60   31   33 1
    61   32   59 1
    62   33   34 2
    63   33   35 2
    64   33   36 1
    65   36   60 1
    66   36   61 1
@<TRIPOS>MOLECULE
CHEMBL257533
   39    42     0     0     0
SMALL
USER_CHARGES

@<TRIPOS>ATOM
      1 C1         -0.0413    1.4837   -0.3682 C.ar      1 <0>        -0.0711
      2 C2          1.1575    2.1618   -0.3240 C.ar      1 <0>        -0.1147
      3 C3          2.3432    1.4671   -0.1135 C.ar      1 <0>         0.1764
      4 C4          2.3231    0.0870    0.0525 C.ar      1 <0>        -0.1436
      5 C5          1.1272   -0.5962    0.0092 C.ar      1 <0>        -0.0927
      6 C6         -0.0644    0.0986   -0.2015 C.ar      1 <0>        -0.0762
      7 C7         -1.3512   -0.6327   -0.2480 C.ar      1 <0>         0.0861
      8 C8         -2.4452   -0.2138    0.5079 C.ar      1 <0>        -0.2153
      9 C9         -3.6305   -0.9247    0.4366 C.ar      1 <0>         0.1803
     10 N1         -3.7540   -1.9893   -0.3273 N.ar      1 <0>        -0.5122
     11 C10        -2.7504   -2.4400   -1.0715 C.ar      1 <0>         0.3411
     12 C11        -1.5118   -1.7713   -1.0621 C.ar      1 <0>        -0.2349
     13 C12        -0.6382   -2.5016   -1.9768 C.2       1 <0>         0.3733
     14 N2         -1.3275   -3.4980   -2.4681 N.2       1 <0>        -0.3072
     15 N3         -2.6186   -3.4966   -1.9311 N.pl3     1 <0>        -0.4900
     16 H1         -3.3150   -4.1378   -2.1429 H         1 <0>         0.4457
     17 N4          0.6919   -2.1918   -2.2729 N.pl3     1 <0>        -0.8343
     18 N5          3.5574    2.1573   -0.0691 N.am      1 <0>        -0.6813
     19 C13         3.6041    3.4071    0.4331 C.2       1 <0>         0.7047
     20 O1          2.6109    3.8989    0.9334 O.2       1 <0>        -0.5521
     21 N6          4.7518    4.1119    0.3808 N.am      1 <0>        -0.6701
     22 C14         4.8296    5.3769    0.9941 C.2       1 <0>         0.1087
     23 C15         6.0226    5.8237    1.5397 C.2       1 <0>        -0.1735
     24 C16         6.0609    7.0471    2.1218 C.2       1 <0>        -0.1583
     25 S1          4.3809    7.6125    1.9113 S.3       1 <0>         0.0558
     26 C17         3.7374    6.1837    1.0563 C.2       1 <0>        -0.1672
     27 H2         -0.9626    2.0244   -0.5274 H         1 <0>         0.1339
     28 H3          1.1761    3.2339   -0.4534 H         1 <0>         0.1425
     29 H4          3.2458   -0.4503    0.2152 H         1 <0>         0.1337
     30 H5          1.1122   -1.6684    0.1379 H         1 <0>         0.1346
     31 H6         -2.3683    0.6565    1.1429 H         1 <0>         0.1447
     32 H7         -4.4761   -0.5975    1.0235 H         1 <0>         0.1692
     33 H8          1.1166   -1.4271   -1.8538 H         1 <0>         0.4121
     34 H9          1.1904   -2.7416   -2.8975 H         1 <0>         0.4067
     35 H10         4.3666    1.7368   -0.3997 H         1 <0>         0.4105
     36 H11         5.5241    3.7476   -0.0793 H         1 <0>         0.4078
     37 H12         6.9080    5.2065    1.5020 H         1 <0>         0.1382
     38 H13         6.8932    7.5500    2.5918 H         1 <0>         0.1914
     39 H14         2.7388    6.0060    0.6853 H         1 <0>         0.1975
@<TRIPOS>BOND
     1    1    6 ar
     2    1    2 ar
     3    1   27 1
     4    2    3 ar
     5    2   28 1
     6    3    4 ar
     7    3   18 1
     8    4    5 ar
     9    4   29 1
    10    5    6 ar
    11    5   30 1
    12    6    7 1
    13    7   12 ar
    14    7    8 ar
    15    8    9 ar
    16    8   31 1
    17    9   10 ar
    18    9   32 1
    19   10   11 ar
    20   11   15 1
    21   11   12 ar
    22   12   13 1
    23   13   14 2
    24   13   17 1
    25   14   15 1
    26   15   16 1
    27   17   33 1
    28   17   34 1
    29   18   19 am
    30   18   35 1
    31   19   20 2
    32   19   21 am
    33   21   22 1
    34   21   36 1
    35   22   26 2
    36   22   23 1
    37   23   24 2
    38   23   37 1
    39   24   25 1
    40   24   38 1
    41   25   26 1
    42   26   39 1
@<TRIPOS>MOLECULE
CHEMBL257533__1
   39    42     0     0     0
SMALL
USER_CHARGES

@<TRIPOS>ATOM
      1 C1         -0.1304    1.7920   -0.2407 C.ar      1 <0>        -0.0926
      2 C2          1.0469    2.4808   -0.4349 C.ar      1 <0>        -0.1165
      3 C3          2.2664    1.8582   -0.1930 C.ar      1 <0>         0.1689
      4 C4          2.3017    0.5393    0.2459 C.ar      1 <0>        -0.1394
      5 C5          1.1277   -0.1545    0.4424 C.ar      1 <0>        -0.0745
      6 C6         -0.0980    0.4678    0.1999 C.ar      1 <0>        -0.0766
      7 C7         -1.3608   -0.2747    0.4099 C.ar      1 <0>         0.1040
      8 C8         -1.6591   -0.8501    1.6381 C.ar      1 <0>        -0.2370
      9 C9         -2.8487   -1.5438    1.8173 C.ar      1 <0>         0.2049
     10 N1         -3.7341   -1.6905    0.8625 N.ar      1 <0>        -0.4892
     11 C10        -3.5413   -1.1720   -0.3619 C.ar      1 <0>         0.3054
     12 C11        -2.3084   -0.4173   -0.6336 C.ar      1 <0>        -0.3058
     13 C12        -2.3835   -0.0002   -1.9571 C.2       1 <0>         0.4202
     14 N2         -3.5483   -0.4455   -2.4576 N.pl3     1 <0>        -0.4534
     15 N3         -4.2428   -1.1659   -1.4800 N.2       1 <0>        -0.3051
     16 H1         -3.8580   -0.2964   -3.3646 H         1 <0>         0.4435
     17 N4         -1.4308    0.7404   -2.6368 N.pl3     1 <0>        -0.8371
     18 N5          3.4583    2.5590   -0.3917 N.am      1 <0>        -0.6817
     19 C13         3.5225    3.8744   -0.1054 C.2       1 <0>         0.7045
     20 O1          2.5227    4.4689    0.2493 O.2       1 <0>        -0.5528
     21 N6          4.6947    4.5309   -0.2121 N.am      1 <0>        -0.6709
     22 C14         4.7864    5.8775    0.1887 C.2       1 <0>         0.1123
     23 C15         5.6626    6.7438   -0.4456 C.2       1 <0>        -0.1737
     24 C16         5.7242    8.0336   -0.0337 C.2       1 <0>        -0.1581
     25 S1          4.5232    8.0606    1.2867 S.3       1 <0>         0.0595
     26 C17         4.0131    6.3521    1.2008 C.2       1 <0>        -0.1706
     27 H2         -1.0774    2.2774   -0.4249 H         1 <0>         0.1298
     28 H3          1.0225    3.5054   -0.7758 H         1 <0>         0.1455
     29 H4          3.2504    0.0582    0.4327 H         1 <0>         0.1320
     30 H5          1.1558   -1.1789    0.7833 H         1 <0>         0.1348
     31 H6         -0.9622   -0.7579    2.4580 H         1 <0>         0.1372
     32 H7         -3.0524   -1.9809    2.7836 H         1 <0>         0.1644
     33 H8         -0.5726    0.9232   -2.2231 H         1 <0>         0.4212
     34 H9         -1.6217    1.0765   -3.5265 H         1 <0>         0.4058
     35 H10         4.2399    2.0988   -0.7357 H         1 <0>         0.4101
     36 H11         5.4751    4.0757   -0.5651 H         1 <0>         0.4074
     37 H12         6.2870    6.3965   -1.2554 H         1 <0>         0.1383
     38 H13         6.3411    8.8374   -0.4075 H         1 <0>         0.1916
     39 H14         3.2808    5.8302    1.7991 H         1 <0>         0.1938
@<TRIPOS>BOND
     1    1    6 ar
     2    1    2 ar
     3    1   27 1
     4    2    3 ar
     5    2   28 1
     6    3    4 ar
     7    3   18 1
     8    4    5 ar
     9    4   29 1
    10    5    6 ar
    11    5   30 1
    12    6    7 1
    13    7   12 ar
    14    7    8 ar
    15    8    9 ar
    16    8   31 1
    17    9   10 ar
    18    9   32 1
    19   10   11 ar
    20   11   12 ar
    21   11   15 2
    22   12   13 2
    23   13   17 1
    24   13   14 1
    25   14   16 1
    26   14   15 1
    27   17   33 1
    28   17   34 1
    29   18   19 am
    30   18   35 1
    31   19   20 2
    32   19   21 am
    33   21   22 1
    34   21   36 1
    35   22   26 2
    36   22   23 1
    37   23   24 2
    38   23   37 1
    39   24   25 1
    40   24   38 1
    41   25   26 1
    42   26   39 1
@<TRIPOS>MOLECULE
CHEMBL462168
   60    64     0     0     0
SMALL
USER_CHARGES

@<TRIPOS>ATOM
      1 C1         -0.1965    1.3727    0.0564 C.3       1 <0>         0.1040
      2 N1         -0.0903   -0.0881    0.0235 N.pl3     1 <0>        -0.3883
      3 C2         -0.0346   -0.8550   -1.1116 C.ar      1 <0>         0.1551
      4 C3         -0.0554   -0.5614   -2.4725 C.ar      1 <0>        -0.1182
      5 C4          0.0195   -1.5869   -3.3947 C.ar      1 <0>         0.0953
      6 C5          0.1157   -2.9129   -2.9733 C.ar      1 <0>        -0.1802
      7 C6          0.1374   -3.2183   -1.6444 C.ar      1 <0>        -0.0093
      8 C7          0.0628   -2.1957   -0.6934 C.ar      1 <0>        -0.1697
      9 C8          0.0608   -2.1701    0.7703 C.2       1 <0>         0.3193
     10 N2         -0.0238   -0.9211    1.1448 N.2       1 <0>        -0.2165
     11 N3          0.1411   -3.2815    1.6153 N.am      1 <0>        -0.6316
     12 C9          0.1289   -3.1135    2.9525 C.2       1 <0>         0.5581
     13 O1          0.0481   -1.9959    3.4241 O.2       1 <0>        -0.4704
     14 C10         0.2137   -4.2882    3.8457 C.ar      1 <0>        -0.1385
     15 C11         0.3124   -5.5726    3.3074 C.ar      1 <0>        -0.0557
     16 C12         0.3917   -6.6645    4.1465 C.ar      1 <0>        -0.1216
     17 C13         0.3732   -6.4890    5.5191 C.ar      1 <0>        -0.0387
     18 C14         0.2756   -5.2190    6.0590 C.ar      1 <0>        -0.1852
     19 C15         0.2013   -4.1179    5.2309 C.ar      1 <0>        -0.0045
     20 C16         0.2556   -5.0376    7.5549 C.3       1 <0>         0.5094
     21 F1          0.3467   -6.2871    8.1775 F         1 <0>        -0.1729
     22 F2          1.3398   -4.2431    7.9428 F         1 <0>        -0.1715
     23 F3         -0.9383   -4.4141    7.9331 F         1 <0>        -0.1718
     24 O2         -0.0012   -1.3016   -4.7230 O.3       1 <0>        -0.2109
     25 C17        -1.0843   -1.6896   -5.4407 C.ar      1 <0>         0.2834
     26 C18        -2.1912   -2.2416   -4.8194 C.ar      1 <0>        -0.2612
     27 C19        -3.2861   -2.6293   -5.5806 C.ar      1 <0>         0.2248
     28 N4         -3.3065   -2.4884   -6.8855 N.ar      1 <0>        -0.4807
     29 C20        -2.2715   -1.9627   -7.5508 C.ar      1 <0>         0.1826
     30 C21        -1.1199   -1.5376   -6.8446 C.ar      1 <0>        -0.0889
     31 C22        -0.0380   -0.9818   -7.5446 C.ar      1 <0>        -0.1377
     32 C23        -0.1070   -0.8505   -8.9011 C.ar      1 <0>         0.1358
     33 C24        -1.2485   -1.2654   -9.6027 C.ar      1 <0>         0.2170
     34 C25        -2.3101   -1.8196   -8.9481 C.ar      1 <0>        -0.2364
     35 O3         -1.2935   -1.1237  -10.9535 O.3       1 <0>        -0.2773
     36 C26        -2.4823   -1.5644  -11.6127 C.3       1 <0>         0.0115
     37 O4          0.9410   -0.3115   -9.5794 O.3       1 <0>        -0.2862
     38 C27         2.0743    0.0920   -8.8081 C.3       1 <0>         0.0147
     39 H1          0.8022    1.8096    0.0596 H         1 <0>         0.0803
     40 H2         -0.7410    1.7174   -0.8226 H         1 <0>         0.0890
     41 H3         -0.7295    1.6780    0.9568 H         1 <0>         0.0987
     42 H4         -0.1301    0.4633   -2.8054 H         1 <0>         0.1466
     43 H5          0.1732   -3.7046   -3.7056 H         1 <0>         0.1414
     44 H6          0.2125   -4.2479   -1.3271 H         1 <0>         0.1435
     45 H7          0.2055   -4.1732    1.2391 H         1 <0>         0.4225
     46 H8          0.3263   -5.7110    2.2364 H         1 <0>         0.1357
     47 H9          0.4681   -7.6586    3.7314 H         1 <0>         0.1481
     48 H10         0.4348   -7.3473    6.1716 H         1 <0>         0.1498
     49 H11         0.1293   -3.1267    5.6537 H         1 <0>         0.1512
     50 H12        -2.2031   -2.3706   -3.7472 H         1 <0>         0.1866
     51 H13        -4.1443   -3.0588   -5.0853 H         1 <0>         0.2126
     52 H14         0.8447   -0.6593   -7.0123 H         1 <0>         0.1730
     53 H15        -3.1825   -2.1354   -9.5010 H         1 <0>         0.1715
     54 H16        -2.6290   -2.6280  -11.4247 H         1 <0>         0.0696
     55 H17        -3.3374   -1.0066  -11.2311 H         1 <0>         0.0695
     56 H18        -2.3871   -1.3947  -12.6852 H         1 <0>         0.1217
     57 H19         1.7712    0.8507   -8.0865 H         1 <0>         0.0672
     58 H20         2.4800   -0.7706   -8.2796 H         1 <0>         0.0675
     59 H21         2.8362    0.5039   -9.4699 H         1 <0>         0.1188
     60 H22        -4.0912   -2.7729   -7.3797 H         1 <0>         0.4477
@<TRIPOS>BOND
     1    1    2 1
     2    1   39 1
     3    1   40 1
     4    1   41 1
     5    2   10 1
     6    2    3 1
     7    3    8 ar
     8    3    4 ar
     9    4    5 ar
    10    4   42 1
    11    5    6 ar
    12    5   24 1
    13    6    7 ar
    14    6   43 1
    15    7    8 ar
    16    7   44 1
    17    8    9 1
    18    9   10 2
    19    9   11 1
    20   11   12 am
    21   11   45 1
    22   12   13 2
    23   12   14 1
    24   14   19 ar
    25   14   15 ar
    26   15   16 ar
    27   15   46 1
    28   16   17 ar
    29   16   47 1
    30   17   18 ar
    31   17   48 1
    32   18   19 ar
    33   18   20 1
    34   19   49 1
    35   20   21 1
    36   20   22 1
    37   20   23 1
    38   24   25 1
    39   25   30 ar
    40   25   26 ar
    41   26   27 ar
    42   26   50 1
    43   27   28 ar
    44   27   51 1
    45   28   29 ar
    46   28   60 1
    47   29   34 ar
    48   29   30 ar
    49   30   31 ar
    50   31   32 ar
    51   31   52 1
    52   32   33 ar
    53   32   37 1
    54   33   34 ar
    55   33   35 1
    56   34   53 1
    57   35   36 1
    58   36   54 1
    59   36   55 1
    60   36   56 1
    61   37   38 1
    62   38   57 1
    63   38   58 1
    64   38   59 1
@<TRIPOS>MOLECULE
CHEMBL150826
   44    46     0     0     0
SMALL
USER_CHARGES

@<TRIPOS>ATOM
      1 C1          0.5289    1.0988   -2.8429 C.3       1 <0>         0.0307
      2 O1          0.4696   -0.2713   -2.4414 O.3       1 <0>        -0.3851
      3 C2          1.0875   -1.1737   -3.3611 C.3       1 <0>         0.0624
      4 C3          0.9647   -2.6042   -2.8324 C.3       1 <0>         0.0532
      5 O2         -0.4127   -2.9831   -2.7987 O.3       1 <0>        -0.2869
      6 C4         -0.6978   -4.2338   -2.3505 C.ar      1 <0>         0.1582
      7 C5          0.3189   -5.0549   -1.9550 C.ar      1 <0>        -0.1694
      8 C6          0.0280   -6.3474   -1.4915 C.ar      1 <0>         0.1171
      9 C7         -1.3225   -6.7773   -1.4427 C.ar      1 <0>        -0.1026
     10 C8         -2.3457   -5.9156   -1.8541 C.ar      1 <0>        -0.1774
     11 C9         -2.0326   -4.6608   -2.2953 C.ar      1 <0>         0.1404
     12 O3         -3.0247   -3.8196   -2.6899 O.3       1 <0>        -0.2951
     13 C10        -4.3636   -4.3128   -2.6102 C.3       1 <0>         0.0205
     14 C11        -1.5866   -8.0850   -0.9707 C.ar      1 <0>         0.2180
     15 C12        -0.4978   -8.8544   -0.5882 C.ar      1 <0>        -0.0555
     16 N1          0.7294   -8.3663   -0.6689 N.ar      1 <0>        -0.1827
     17 N2          0.9931   -7.1838   -1.0941 N.ar      1 <0>        -0.2472
     18 N3         -2.8825   -8.5774   -0.8932 N.pl3     1 <0>        -0.6523
     19 C13        -3.1220   -9.8284   -0.3144 C.ar      1 <0>         0.1440
     20 C14        -2.4693  -10.1889    0.8564 C.ar      1 <0>        -0.1393
     21 C15        -2.7090  -11.4284    1.4276 C.ar      1 <0>         0.1425
     22 C16        -3.6010  -12.3078    0.8287 C.ar      1 <0>        -0.0535
     23 C17        -4.2513  -11.9485   -0.3379 C.ar      1 <0>        -0.1034
     24 C18        -4.0187  -10.7102   -0.9082 C.ar      1 <0>         0.0814
     25 F1         -4.6588  -10.3591   -2.0450 F         1 <0>        -0.1245
     26 Cl1        -3.9001  -13.8607    1.5448 Cl        1 <0>        -0.0332
     27 O4         -2.0703  -11.7836    2.5741 O.3       1 <0>        -0.4771
     28 H1          1.5707    1.4037   -2.9418 H         1 <0>         0.0427
     29 H2          0.0227    1.2191   -3.8007 H         1 <0>         0.0435
     30 H3          0.0386    1.7189   -2.0924 H         1 <0>         0.0883
     31 H4          0.5928   -1.1007   -4.3297 H         1 <0>         0.0636
     32 H5          2.1409   -0.9161   -3.4708 H         1 <0>         0.0762
     33 H6          1.5120   -3.2820   -3.4875 H         1 <0>         0.0862
     34 H7          1.3806   -2.6566   -1.8262 H         1 <0>         0.0797
     35 H8          1.3420   -4.7117   -1.9989 H         1 <0>         0.1588
     36 H9         -3.3757   -6.2385   -1.8191 H         1 <0>         0.1410
     37 H10        -4.4627   -5.1978   -3.2387 H         1 <0>         0.0587
     38 H11        -4.5939   -4.5731   -1.5771 H         1 <0>         0.0586
     39 H12        -5.0552   -3.5437   -2.9540 H         1 <0>         0.1085
     40 H13        -0.6527   -9.8585   -0.2217 H         1 <0>         0.1737
     41 H14        -3.6217   -8.0541   -1.2404 H         1 <0>         0.4190
     42 H15        -1.7753   -9.5043    1.3214 H         1 <0>         0.1585
     43 H16        -4.9444  -12.6344   -0.8021 H         1 <0>         0.1593
     44 H17        -2.5452  -11.5401    3.3805 H         1 <0>         0.4007
@<TRIPOS>BOND
     1    1    2 1
     2    1   28 1
     3    1   29 1
     4    1   30 1
     5    2    3 1
     6    3    4 1
     7    3   31 1
     8    3   32 1
     9    4    5 1
    10    4   33 1
    11    4   34 1
    12    5    6 1
    13    6   11 ar
    14    6    7 ar
    15    7    8 ar
    16    7   35 1
    17    8   17 ar
    18    8    9 ar
    19    9   10 ar
    20    9   14 ar
    21   10   11 ar
    22   10   36 1
    23   11   12 1
    24   12   13 1
    25   13   37 1
    26   13   38 1
    27   13   39 1
    28   14   15 ar
    29   14   18 1
    30   15   16 ar
    31   15   40 1
    32   16   17 ar
    33   18   19 1
    34   18   41 1
    35   19   24 ar
    36   19   20 ar
    37   20   21 ar
    38   20   42 1
    39   21   22 ar
    40   21   27 1
    41   22   23 ar
    42   22   26 1
    43   23   24 ar
    44   23   43 1
    45   24   25 1
    46   27   44 1
@<TRIPOS>MOLECULE
CHEMBL150826__1
   45    47     0     0     0
SMALL
USER_CHARGES

@<TRIPOS>ATOM
      1 C1         -2.7520    1.0334    0.9642 C.3       1 <0>         0.0297
      2 O1         -2.3404   -0.3274    0.8197 O.3       1 <0>        -0.3882
      3 C2         -3.4228   -1.2575    0.7475 C.3       1 <0>         0.0580
      4 C3         -2.8678   -2.6751    0.5945 C.3       1 <0>         0.0471
      5 O2         -2.1408   -3.0316    1.7719 O.3       1 <0>        -0.2645
      6 C4         -1.5788   -4.2686    1.7991 C.ar      1 <0>         0.2333
      7 C5         -1.7239   -5.0974    0.7237 C.ar      1 <0>        -0.2378
      8 C6         -1.1448   -6.3756    0.7484 C.ar      1 <0>         0.1836
      9 C7         -0.4168   -6.7834    1.8951 C.ar      1 <0>        -0.1073
     10 C8         -0.2833   -5.9142    2.9840 C.ar      1 <0>        -0.1558
     11 C9         -0.8533   -4.6736    2.9290 C.ar      1 <0>         0.1505
     12 O3         -0.7203   -3.8250    3.9826 O.3       1 <0>        -0.2802
     13 C10         0.0301   -4.2956    5.1039 C.3       1 <0>         0.0128
     14 C11         0.1567   -8.0771    1.8924 C.ar      1 <0>         0.3146
     15 C12        -0.0369   -8.8556    0.7610 C.ar      1 <0>         0.0021
     16 N1         -0.7323   -8.3883   -0.2632 N.ar      1 <0>        -0.1338
     17 N2         -1.2619   -7.2189   -0.2832 N.ar      1 <0>        -0.3293
     18 N3          0.8837   -8.5476    2.9777 N.pl3     1 <0>        -0.5952
     19 C13         1.5359   -9.7829    2.9001 C.ar      1 <0>         0.0871
     20 C14         2.2325  -10.1300    1.7508 C.ar      1 <0>        -0.1324
     21 C15         2.8779  -11.3540    1.6771 C.ar      1 <0>         0.1453
     22 C16         2.8272  -12.2312    2.7522 C.ar      1 <0>        -0.0317
     23 C17         2.1331  -11.8852    3.8973 C.ar      1 <0>        -0.1025
     24 C18         1.4920  -10.6623    3.9767 C.ar      1 <0>         0.1118
     25 F1          0.8188  -10.3241    5.0982 F         1 <0>        -0.1160
     26 Cl1         3.6356  -13.7647    2.6586 Cl        1 <0>        -0.0087
     27 O4          3.5604  -11.6962    0.5521 O.3       1 <0>        -0.4739
     28 H1         -1.8728    1.6759    1.0115 H         1 <0>         0.0928
     29 H2         -3.3659    1.3199    0.1104 H         1 <0>         0.0468
     30 H3         -3.3314    1.1423    1.8811 H         1 <0>         0.0472
     31 H4         -4.0161   -1.1961    1.6599 H         1 <0>         0.0689
     32 H5         -4.0506   -1.0185   -0.1109 H         1 <0>         0.0840
     33 H6         -3.6915   -3.3742    0.4504 H         1 <0>         0.0942
     34 H7         -2.2032   -2.7138   -0.2686 H         1 <0>         0.0881
     35 H8         -2.2818   -4.7711   -0.1416 H         1 <0>         0.1761
     36 H9          0.2697   -6.2203    3.8596 H         1 <0>         0.1622
     37 H10         0.0588   -3.5229    5.8721 H         1 <0>         0.1217
     38 H11        -0.4422   -5.1914    5.5071 H         1 <0>         0.0670
     39 H12         1.0463   -4.5316    4.7878 H         1 <0>         0.0669
     40 H13         0.3830   -9.8496    0.7154 H         1 <0>         0.2202
     41 H14         0.9394   -8.0199    3.7897 H         1 <0>         0.4352
     42 H15         2.2711   -9.4472    0.9149 H         1 <0>         0.1613
     43 H16         2.0947  -12.5694    4.7321 H         1 <0>         0.1702
     44 H17         4.4898  -11.4292    0.5593 H         1 <0>         0.4086
     45 H18        -1.7602   -6.9395   -1.0671 H         1 <0>         0.4701
@<TRIPOS>BOND
     1    1    2 1
     2    1   28 1
     3    1   29 1
     4    1   30 1
     5    2    3 1
     6    3    4 1
     7    3   31 1
     8    3   32 1
     9    4    5 1
    10    4   33 1
    11    4   34 1
    12    5    6 1
    13    6   11 ar
    14    6    7 ar
    15    7    8 ar
    16    7   35 1
    17    8   17 ar
    18    8    9 ar
    19    9   10 ar
    20    9   14 ar
    21   10   11 ar
    22   10   36 1
    23   11   12 1
    24   12   13 1
    25   13   37 1
    26   13   38 1
    27   13   39 1
    28   14   15 ar
    29   14   18 1
    30   15   16 ar
    31   15   40 1
    32   16   17 ar
    33   17   45 1
    34   18   19 1
    35   18   41 1
    36   19   24 ar
    37   19   20 ar
    38   20   21 ar
    39   20   42 1
    40   21   22 ar
    41   21   27 1
    42   22   23 ar
    43   22   26 1
    44   23   24 ar
    45   23   43 1
    46   24   25 1
    47   27   44 1
@<TRIPOS>MOLECULE
CHEMBL357815
   45    48     0     0     0
SMALL
USER_CHARGES

@<TRIPOS>ATOM
      1 C1         -0.0247    1.4794    0.3250 C.3       1 <0>         0.0206
      2 O1         -0.0087    0.0913    0.6643 O.3       1 <0>        -0.2995
      3 C2         -1.2117   -0.5362    0.7538 C.ar      1 <0>         0.1163
      4 C3         -2.3592    0.1660    0.5164 C.ar      1 <0>        -0.1481
      5 C4         -3.5982   -0.4791    0.6083 C.ar      1 <0>        -0.1771
      6 C5         -3.6555   -1.8540    0.9465 C.ar      1 <0>         0.2023
      7 C6         -2.4670   -2.5542    1.1857 C.ar      1 <0>        -0.1773
      8 C7         -1.2603   -1.8979    1.0832 C.ar      1 <0>         0.1667
      9 O2         -0.1051   -2.5761    1.3094 O.3       1 <0>        -0.2909
     10 C8         -0.2204   -3.9613    1.6410 C.3       1 <0>         0.0424
     11 C9          1.1743   -4.5515    1.8584 C.3       1 <0>         0.1212
     12 N1          1.0561   -5.9716    2.1984 N.pl3     1 <0>        -0.2945
     13 C10         1.6684   -6.9939    1.5573 C.2       1 <0>        -0.0434
     14 C11         1.2843   -8.1236    2.1962 C.2       1 <0>        -0.0480
     15 N2          0.4666   -7.7422    3.1838 N.2       1 <0>        -0.2634
     16 N3          0.3564   -6.4608    3.1616 N.2       1 <0>        -0.0847
     17 N4         -4.8563   -2.4485    1.0275 N.ar      1 <0>        -0.5357
     18 C12        -5.9530   -1.7666    0.7974 C.ar      1 <0>         0.3422
     19 N5         -5.9482   -0.4821    0.4784 N.ar      1 <0>        -0.5790
     20 C13        -4.8162    0.2017    0.3718 C.ar      1 <0>         0.4640
     21 N6         -4.8263    1.5411    0.0393 N.pl3     1 <0>        -0.6313
     22 C14        -6.0413    2.2293   -0.0571 C.ar      1 <0>         0.1325
     23 C15        -7.1827    1.7125    0.5409 C.ar      1 <0>        -0.0982
     24 C16        -8.3806    2.3937    0.4449 C.ar      1 <0>        -0.0924
     25 C17        -8.4449    3.5906   -0.2468 C.ar      1 <0>        -0.0309
     26 C18        -7.3099    4.1092   -0.8449 C.ar      1 <0>        -0.1216
     27 C19        -6.1065    3.4349   -0.7474 C.ar      1 <0>         0.0729
     28 F1         -4.9970    3.9437   -1.3265 F         1 <0>        -0.1330
     29 Cl1        -9.9526    4.4429   -0.3648 Cl        1 <0>        -0.0549
     30 H1          0.9975    1.8560    0.2871 H         1 <0>         0.1087
     31 H2         -0.4964    1.6100   -0.6489 H         1 <0>         0.0586
     32 H3         -0.5874    2.0310    1.0782 H         1 <0>         0.0587
     33 H4         -2.3107    1.2138    0.2593 H         1 <0>         0.1411
     34 H5         -2.4958   -3.6024    1.4443 H         1 <0>         0.1569
     35 H6         -0.8068   -4.0689    2.5536 H         1 <0>         0.0897
     36 H7         -0.7157   -4.4899    0.8265 H         1 <0>         0.0785
     37 H8          1.7606   -4.4439    0.9459 H         1 <0>         0.1215
     38 H9          1.6696   -4.0229    2.6729 H         1 <0>         0.1155
     39 H10         2.3302   -6.9228    0.7068 H         1 <0>         0.1944
     40 H11         1.5796   -9.1343    1.9557 H         1 <0>         0.1935
     41 H12        -6.9023   -2.2762    0.8713 H         1 <0>         0.2023
     42 H13        -3.9912    2.0057   -0.1277 H         1 <0>         0.4238
     43 H14        -7.1341    0.7784    1.0807 H         1 <0>         0.1832
     44 H15        -9.2684    1.9913    0.9099 H         1 <0>         0.1459
     45 H16        -7.3631    5.0431   -1.3846 H         1 <0>         0.1507
@<TRIPOS>BOND
     1    1    2 1
     2    1   30 1
     3    1   31 1
     4    1   32 1
     5    2    3 1
     6    3    8 ar
     7    3    4 ar
     8    4    5 ar
     9    4   33 1
    10    5   20 ar
    11    5    6 ar
    12    6    7 ar
    13    6   17 ar
    14    7    8 ar
    15    7   34 1
    16    8    9 1
    17    9   10 1
    18   10   11 1
    19   10   35 1
    20   10   36 1
    21   11   12 1
    22   11   37 1
    23   11   38 1
    24   12   16 1
    25   12   13 1
    26   13   14 2
    27   13   39 1
    28   14   15 1
    29   14   40 1
    30   15   16 2
    31   17   18 ar
    32   18   19 ar
    33   18   41 1
    34   19   20 ar
    35   20   21 1
    36   21   22 1
    37   21   42 1
    38   22   27 ar
    39   22   23 ar
    40   23   24 ar
    41   23   43 1
    42   24   25 ar
    43   24   44 1
    44   25   26 ar
    45   25   29 1
    46   26   27 ar
    47   26   45 1
    48   27   28 1
@<TRIPOS>MOLECULE
CHEMBL272691
   53    57     0     0     0
SMALL
USER_CHARGES

@<TRIPOS>ATOM
      1 C1          1.9764    0.1334   -0.3565 C.3       1 <0>         0.0148
      2 O1          0.7527   -0.5569   -0.0959 O.3       1 <0>        -0.2864
      3 C2          0.2760   -0.5094    1.1767 C.ar      1 <0>         0.1346
      4 C3          0.9642    0.1832    2.1306 C.ar      1 <0>        -0.1363
      5 C4          0.4720    0.2326    3.4434 C.ar      1 <0>        -0.0899
      6 C5          1.1568    0.9399    4.4569 C.ar      1 <0>         0.2830
      7 C6          0.6100    0.9441    5.7280 C.ar      1 <0>        -0.2640
      8 C7         -0.5773    0.2643    5.9693 C.ar      1 <0>         0.2262
      9 N1         -1.2053   -0.3897    5.0206 N.ar      1 <0>        -0.4815
     10 C8         -0.7335   -0.4356    3.7690 C.ar      1 <0>         0.1817
     11 C9         -1.4188   -1.1403    2.7654 C.ar      1 <0>        -0.2356
     12 C10        -0.9207   -1.1674    1.4947 C.ar      1 <0>         0.2162
     13 O2         -1.5907   -1.8456    0.5264 O.3       1 <0>        -0.2776
     14 C11        -2.8037   -2.4959    0.9107 C.3       1 <0>         0.0117
     15 O3          2.3145    1.5943    4.1922 O.3       1 <0>        -0.2126
     16 C12         2.8702    2.3353    5.1863 C.ar      1 <0>         0.0447
     17 C13         3.5454    1.6951    6.2297 C.ar      1 <0>        -0.1333
     18 C14         4.1119    2.4118    7.2391 C.ar      1 <0>        -0.0846
     19 C15         4.0194    3.8107    7.2365 C.ar      1 <0>        -0.0002
     20 C16         3.3364    4.4637    6.1816 C.ar      1 <0>        -0.0523
     21 C17         2.7668    3.6972    5.1510 C.ar      1 <0>        -0.0781
     22 C18         3.2447    5.8667    6.1789 C.ar      1 <0>        -0.0634
     23 C19         3.8103    6.5911    7.1852 C.ar      1 <0>        -0.1157
     24 C20         4.4842    5.9688    8.2282 C.ar      1 <0>        -0.0517
     25 C21         4.5984    4.5867    8.2719 C.ar      1 <0>        -0.1247
     26 C22         5.3150    3.9328    9.3817 C.2       1 <0>         0.5608
     27 O4          5.5088    2.7324    9.3570 O.2       1 <0>        -0.4625
     28 N2          5.7555    4.6652   10.4239 N.am      1 <0>        -0.6155
     29 C23         6.4307    4.0491   11.4695 C.2       1 <0>         0.2580
     30 N3          6.7335    2.7764   11.6100 N.2       1 <0>        -0.5177
     31 C24         7.3861    2.3439   12.6729 C.2       1 <0>         0.0582
     32 C25         7.7264    3.2675   13.6052 C.2       1 <0>        -0.2332
     33 S1          7.0666    4.7503   12.8611 S.3       1 <0>         0.1238
     34 H1          2.7676   -0.2810    0.2683 H         1 <0>         0.0673
     35 H2          2.2435    0.0156   -1.4067 H         1 <0>         0.1187
     36 H3          1.8516    1.1923   -0.1299 H         1 <0>         0.0668
     37 H4          1.8832    0.6902    1.8761 H         1 <0>         0.1726
     38 H5          1.1043    1.4733    6.5292 H         1 <0>         0.1851
     39 H6         -0.9947    0.2739    6.9653 H         1 <0>         0.2124
     40 H7         -2.3392   -1.6553    2.9975 H         1 <0>         0.1713
     41 H8         -2.5921   -3.2292    1.6888 H         1 <0>         0.0694
     42 H9         -3.5080   -1.7559    1.2907 H         1 <0>         0.0693
     43 H10        -3.2363   -2.9986    0.0457 H         1 <0>         0.1215
     44 H11         3.6183    0.6176    6.2352 H         1 <0>         0.1390
     45 H12         4.6303    1.9045    8.0393 H         1 <0>         0.1831
     46 H13         2.2467    4.1815    4.3379 H         1 <0>         0.1472
     47 H14         2.7253    6.3713    5.3777 H         1 <0>         0.1426
     48 H15         3.7335    7.6683    7.1712 H         1 <0>         0.1445
     49 H16         4.9233    6.5666    9.0131 H         1 <0>         0.1364
     50 H17         5.6010    5.6226   10.4436 H         1 <0>         0.4261
     51 H18         7.6375    1.3006   12.7945 H         1 <0>         0.1791
     52 H19         8.2544    3.1416   14.5389 H         1 <0>         0.2030
     53 H20        -2.0318   -0.8515    5.2318 H         1 <0>         0.4475
@<TRIPOS>BOND
     1    1    2 1
     2    1   34 1
     3    1   35 1
     4    1   36 1
     5    2    3 1
     6    3   12 ar
     7    3    4 ar
     8    4    5 ar
     9    4   37 1
    10    5   10 ar
    11    5    6 ar
    12    6    7 ar
    13    6   15 1
    14    7    8 ar
    15    7   38 1
    16    8    9 ar
    17    8   39 1
    18    9   10 ar
    19    9   53 1
    20   10   11 ar
    21   11   12 ar
    22   11   40 1
    23   12   13 1
    24   13   14 1
    25   14   41 1
    26   14   42 1
    27   14   43 1
    28   15   16 1
    29   16   21 ar
    30   16   17 ar
    31   17   18 ar
    32   17   44 1
    33   18   19 ar
    34   18   45 1
    35   19   25 ar
    36   19   20 ar
    37   20   21 ar
    38   20   22 ar
    39   21   46 1
    40   22   23 ar
    41   22   47 1
    42   23   24 ar
    43   23   48 1
    44   24   25 ar
    45   24   49 1
    46   25   26 1
    47   26   27 2
    48   26   28 am
    49   28   29 1
    50   28   50 1
    51   29   33 1
    52   29   30 2
    53   30   31 1
    54   31   32 2
    55   31   51 1
    56   32   33 1
    57   32   52 1
@<TRIPOS>MOLECULE
CHEMBL224842
   45    47     0     0     0
SMALL
USER_CHARGES

@<TRIPOS>ATOM
      1 C1         -0.0339    1.8280   -0.0054 C.3       1 <0>        -0.6539
      2 S1         -0.0132    0.0141   -0.0101 S.o2      1 <0>         2.4249
      3 O1          0.7776   -0.4292    1.0841 O.2       1 <0>        -0.9179
      4 O2         -1.3509   -0.4504   -0.1289 O.2       1 <0>        -0.9228
      5 C2          0.8671   -0.3726   -1.5483 C.3       1 <0>        -0.6091
      6 C3          0.1641    0.3087   -2.7259 C.3       1 <0>        -0.1388
      7 C4          0.8641   -0.0857   -4.0282 C.3       1 <0>         0.0017
      8 N1          0.8053   -1.5425   -4.1978 N.4       1 <0>        -0.3840
      9 C5          1.5391   -2.2005   -3.1101 C.3       1 <0>        -0.0053
     10 C6          0.8651   -1.8875   -1.7725 C.3       1 <0>        -0.1310
     11 C7          1.4092   -1.9089   -5.4858 C.3       1 <0>         0.0443
     12 C8          1.2401   -3.3884   -5.7172 C.ar      1 <0>        -0.0787
     13 C9          2.1988   -4.2903   -5.2748 C.ar      1 <0>        -0.1945
     14 C10         2.0141   -5.6394   -5.5026 C.ar      1 <0>         0.1605
     15 N2          0.9414   -6.0785   -6.1331 N.ar      1 <0>        -0.4525
     16 C11         0.0053   -5.2505   -6.5700 C.ar      1 <0>         0.3894
     17 C12         0.1236   -3.8790   -6.3699 C.ar      1 <0>        -0.1914
     18 N3         -1.1102   -5.7574   -7.2304 N.pl3     1 <0>        -0.5948
     19 C13        -1.1839   -7.1045   -7.5276 C.2       1 <0>         0.2775
     20 N4         -0.3448   -8.0641   -7.1834 N.2       1 <0>        -0.5174
     21 C14        -0.5453   -9.3091   -7.5406 C.2       1 <0>         0.1533
     22 C15        -1.6822   -9.5578   -8.2957 C.2       1 <0>        -0.1922
     23 S2         -2.3685   -7.9130   -8.4080 S.3       1 <0>         0.2148
     24 C16        -2.1724  -10.7920   -8.8314 C.1       1 <0>         0.2922
     25 N5         -2.5614  -11.7711   -9.2565 N.1       1 <0>        -0.3808
     26 H1          0.9895    2.2030   -0.0103 H         1 <0>         0.1344
     27 H2         -0.5569    2.1877   -0.8915 H         1 <0>         0.1311
     28 H3         -0.5468    2.1832    0.8884 H         1 <0>         0.1419
     29 H4          1.8947   -0.0156   -1.4797 H         1 <0>         0.1577
     30 H5         -0.8777   -0.0099   -2.7617 H         1 <0>         0.1100
     31 H6          0.2104    1.3905   -2.6010 H         1 <0>         0.1273
     32 H7          0.3661    0.3979   -4.8687 H         1 <0>         0.1404
     33 H8          1.9056    0.2336   -3.9915 H         1 <0>         0.1361
     34 H9          1.5396   -3.2783   -3.2728 H         1 <0>         0.1404
     35 H10         2.5663   -1.8362   -3.0930 H         1 <0>         0.1368
     36 H11         1.4126   -2.3755   -0.9661 H         1 <0>         0.1295
     37 H12        -0.1621   -2.2517   -1.7885 H         1 <0>         0.1060
     38 H13         0.9180   -1.3573   -6.2874 H         1 <0>         0.1445
     39 H14         2.4708   -1.6622   -5.4725 H         1 <0>         0.1444
     40 H15         3.0801   -3.9400   -4.7581 H         1 <0>         0.1466
     41 H16         2.7573   -6.3443   -5.1606 H         1 <0>         0.1738
     42 H17        -0.6438   -3.2061   -6.7229 H         1 <0>         0.1464
     43 H18        -1.8357   -5.1648   -7.4820 H         1 <0>         0.4414
     44 H19         0.1375  -10.0983   -7.2625 H         1 <0>         0.1925
     45 H20        -0.1578   -1.8433   -4.1825 H         1 <0>         0.4252
@<TRIPOS>BOND
     1    1    2 1
     2    1   26 1
     3    1   27 1
     4    1   28 1
     5    2    3 2
     6    2    4 2
     7    2    5 1
     8    5   10 1
     9    5    6 1
    10    5   29 1
    11    6    7 1
    12    6   30 1
    13    6   31 1
    14    7    8 1
    15    7   32 1
    16    7   33 1
    17    8    9 1
    18    8   11 1
    19    8   45 1
    20    9   10 1
    21    9   34 1
    22    9   35 1
    23   10   36 1
    24   10   37 1
    25   11   12 1
    26   11   38 1
    27   11   39 1
    28   12   17 ar
    29   12   13 ar
    30   13   14 ar
    31   13   40 1
    32   14   15 ar
    33   14   41 1
    34   15   16 ar
    35   16   17 ar
    36   16   18 1
    37   17   42 1
    38   18   19 1
    39   18   43 1
    40   19   23 1
    41   19   20 2
    42   20   21 1
    43   21   22 2
    44   21   44 1
    45   22   23 1
    46   22   24 1
    47   24   25 3
@<TRIPOS>MOLECULE
CHEMBL224842__1
   44    46     0     0     0
SMALL
USER_CHARGES

@<TRIPOS>ATOM
      1 C1         -0.0330    1.8294   -0.0062 C.3       1 <0>        -0.6574
      2 S1         -0.0122    0.0156   -0.0104 S.o2      1 <0>         2.4173
      3 O1          0.7788   -0.4274    1.0837 O.2       1 <0>        -0.9389
      4 O2         -1.3499   -0.4490   -0.1288 O.2       1 <0>        -0.9325
      5 C2          0.8678   -0.3716   -1.5487 C.3       1 <0>        -0.5723
      6 C3          0.1655    0.3111   -2.7257 C.3       1 <0>        -0.1087
      7 C4          0.8760   -0.0683   -4.0269 C.3       1 <0>         0.0633
      8 N1          0.8463   -1.5268   -4.1951 N.3       1 <0>        -0.5326
      9 C5          1.5558   -2.2021   -3.1010 C.3       1 <0>         0.0576
     10 C6          0.8657   -1.8864   -1.7721 C.3       1 <0>        -0.1026
     11 C7          1.3966   -1.9177   -5.4998 C.3       1 <0>         0.0928
     12 C8          1.1282   -3.3810   -5.7403 C.ar      1 <0>        -0.0054
     13 C9          2.0369   -4.3467   -5.3280 C.ar      1 <0>        -0.1991
     14 C10         1.7613   -5.6788   -5.5634 C.ar      1 <0>         0.1400
     15 N2          0.6490   -6.0422   -6.1730 N.ar      1 <0>        -0.4715
     16 C11        -0.2419   -5.1518   -6.5810 C.ar      1 <0>         0.3654
     17 C12        -0.0317   -3.7928   -6.3716 C.ar      1 <0>        -0.1816
     18 N3         -1.4019   -5.5798   -7.2200 N.pl3     1 <0>        -0.5945
     19 C13        -1.5683   -6.9164   -7.5273 C.2       1 <0>         0.3076
     20 N4         -0.7847   -7.9309   -7.2109 N.2       1 <0>        -0.5245
     21 C14        -1.0723   -9.1569   -7.5744 C.2       1 <0>         0.1649
     22 C15        -2.2394   -9.3249   -8.3054 C.2       1 <0>        -0.2187
     23 S2         -2.8215   -7.6387   -8.3874 S.3       1 <0>         0.1860
     24 C16        -2.8193  -10.5198   -8.8406 C.1       1 <0>         0.3045
     25 N5         -3.2795  -11.4677   -9.2652 N.1       1 <0>        -0.4024
     26 H1          0.9904    2.2045   -0.0114 H         1 <0>         0.1285
     27 H2         -0.5562    2.1889   -0.8923 H         1 <0>         0.1304
     28 H3         -0.5457    2.1849    0.8876 H         1 <0>         0.1317
     29 H4          1.8956   -0.0150   -1.4800 H         1 <0>         0.1356
     30 H5         -0.8732   -0.0165   -2.7693 H         1 <0>         0.0953
     31 H6          0.2014    1.3924   -2.5934 H         1 <0>         0.0834
     32 H7          0.3697    0.4047   -4.8684 H         1 <0>         0.0856
     33 H8          1.9109    0.2717   -3.9882 H         1 <0>         0.0410
     34 H9          1.5433   -3.2788   -3.2700 H         1 <0>         0.0896
     35 H10         2.5875   -1.8520   -3.0666 H         1 <0>         0.0412
     36 H11         1.4018   -2.3750   -0.9585 H         1 <0>         0.0857
     37 H12        -0.1620   -2.2485   -1.8007 H         1 <0>         0.0914
     38 H13         0.9239   -1.3277   -6.2850 H         1 <0>         0.0916
     39 H14         2.4719   -1.7393   -5.5088 H         1 <0>         0.0530
     40 H15         2.9502   -4.0585   -4.8286 H         1 <0>         0.1339
     41 H16         2.4654   -6.4331   -5.2448 H         1 <0>         0.1612
     42 H17        -0.7622   -3.0687   -6.7009 H         1 <0>         0.1379
     43 H18        -2.0935   -4.9397   -7.4496 H         1 <0>         0.4390
     44 H19        -0.4353   -9.9908   -7.3190 H         1 <0>         0.1877
@<TRIPOS>BOND
     1    1    2 1
     2    1   26 1
     3    1   27 1
     4    1   28 1
     5    2    3 2
     6    2    4 2
     7    2    5 1
     8    5   10 1
     9    5    6 1
    10    5   29 1
    11    6    7 1
    12    6   30 1
    13    6   31 1
    14    7    8 1
    15    7   32 1
    16    7   33 1
    17    8    9 1
    18    8   11 1
    19    9   10 1
    20    9   34 1
    21    9   35 1
    22   10   36 1
    23   10   37 1
    24   11   12 1
    25   11   38 1
    26   11   39 1
    27   12   17 ar
    28   12   13 ar
    29   13   14 ar
    30   13   40 1
    31   14   15 ar
    32   14   41 1
    33   15   16 ar
    34   16   17 ar
    35   16   18 1
    36   17   42 1
    37   18   19 1
    38   18   43 1
    39   19   23 1
    40   19   20 2
    41   20   21 1
    42   21   22 2
    43   21   44 1
    44   22   23 1
    45   22   24 1
    46   24   25 3
@<TRIPOS>MOLECULE
CHEMBL250625
   60    64     0     0     0
SMALL
USER_CHARGES

@<TRIPOS>ATOM
      1 C1         -0.0795    1.3146   -0.0505 C.3       1 <0>        -0.1089
      2 C2         -0.9732    0.1130    0.1187 C.ar      1 <0>        -0.0728
      3 C3         -1.6456   -0.3908   -0.9497 C.ar      1 <0>        -0.0388
      4 C4         -2.4830   -1.5097   -0.8118 C.ar      1 <0>        -0.0311
      5 C5         -2.6412   -2.1236    0.4173 C.ar      1 <0>        -0.0384
      6 C6         -1.9566   -1.6195    1.5322 C.ar      1 <0>        -0.0171
      7 C7         -1.1080   -0.4909    1.3791 C.ar      1 <0>         0.1914
      8 N1         -0.4582   -0.0265    2.4534 N.ar      1 <0>        -0.4938
      9 C8         -0.6226   -0.6338    3.6148 C.ar      1 <0>         0.4860
     10 N2         -1.4198   -1.6974    3.7398 N.ar      1 <0>        -0.2866
     11 N3         -2.0781   -2.1790    2.7417 N.ar      1 <0>        -0.0997
     12 N4          0.0477   -0.1566    4.7282 N.pl3     1 <0>        -0.6343
     13 C9         -0.0221   -0.8535    5.9380 C.ar      1 <0>         0.2323
     14 C10         0.0084   -2.2423    5.9441 C.ar      1 <0>        -0.1335
     15 C11        -0.0607   -2.9277    7.1410 C.ar      1 <0>         0.0040
     16 C12        -0.1602   -2.2331    8.3326 C.ar      1 <0>        -0.6865
     17 C13        -0.1909   -0.8505    8.3301 C.ar      1 <0>        -0.0024
     18 C14        -0.1163   -0.1588    7.1372 C.ar      1 <0>        -0.1623
     19 S1         -0.2488   -3.1116    9.8574 S.o2      1 <0>         2.5078
     20 O1         -0.9350   -2.2356   10.7412 O.2       1 <0>        -0.9203
     21 O2         -0.8014   -4.3754    9.5162 O.2       1 <0>        -0.9151
     22 C15         1.4761   -3.3056   10.3845 C.3       1 <0>        -0.6075
     23 C16         2.1125   -1.9255   10.5725 C.3       1 <0>        -0.1382
     24 C17         3.5413   -2.0953   11.0931 C.3       1 <0>         0.0013
     25 N5          3.5167   -2.8036   12.3785 N.4       1 <0>        -0.5071
     26 C18         2.9737   -4.1545   12.1924 C.3       1 <0>         0.0032
     27 C19         1.5230   -4.0639   11.7141 C.3       1 <0>        -0.1385
     28 C20        -3.2047   -2.0376   -1.9952 C.ar      1 <0>        -0.0322
     29 C21        -3.1535   -3.3970   -2.2958 C.ar      1 <0>        -0.1171
     30 C22        -3.8299   -3.8839   -3.4017 C.ar      1 <0>         0.1185
     31 C23        -4.5568   -3.0187   -4.2082 C.ar      1 <0>        -0.1234
     32 C24        -4.6088   -1.6698   -3.9115 C.ar      1 <0>        -0.0876
     33 C25        -3.9415   -1.1756   -2.8071 C.ar      1 <0>        -0.0328
     34 Cl1        -4.0152    0.5182   -2.4339 Cl        1 <0>        -0.0541
     35 O3         -3.7816   -5.2095   -3.6981 O.3       1 <0>        -0.4935
     36 H1          0.9282    0.9851   -0.3033 H         1 <0>         0.0781
     37 H2         -0.4668    1.9457   -0.8504 H         1 <0>         0.0751
     38 H3         -0.0537    1.8820    0.8798 H         1 <0>         0.0791
     39 H4         -1.5346    0.0756   -1.9174 H         1 <0>         0.1476
     40 H5         -3.2868   -2.9836    0.5176 H         1 <0>         0.1531
     41 H6          0.5657    0.6613    4.6689 H         1 <0>         0.4314
     42 H7          0.0858   -2.7854    5.0138 H         1 <0>         0.1409
     43 H8         -0.0374   -4.0074    7.1464 H         1 <0>         0.1475
     44 H9         -0.2686   -0.3111    9.2625 H         1 <0>         0.1468
     45 H10        -0.1355    0.9210    7.1363 H         1 <0>         0.1416
     46 H11         2.0280   -3.8627    9.6275 H         1 <0>         0.1591
     47 H12         2.1331   -1.4010    9.6172 H         1 <0>         0.1273
     48 H13         1.5290   -1.3505   11.2916 H         1 <0>         0.1111
     49 H14         4.1239   -2.6701   10.3731 H         1 <0>         0.1352
     50 H15         3.9974   -1.1145   11.2278 H         1 <0>         0.1417
     51 H16         4.4548   -2.8667   12.7446 H         1 <0>         0.4359
     52 H17         3.5684   -4.6854   11.4491 H         1 <0>         0.1365
     53 H18         3.0108   -4.6940   13.1388 H         1 <0>         0.1431
     54 H19         0.9273   -3.5334   12.4569 H         1 <0>         0.1066
     55 H20         1.1223   -5.0680   11.5749 H         1 <0>         0.1307
     56 H21        -2.5875   -4.0693   -1.6681 H         1 <0>         0.1428
     57 H22        -5.0832   -3.4009   -5.0704 H         1 <0>         0.1441
     58 H23        -5.1757   -1.0011   -4.5421 H         1 <0>         0.1452
     59 H24        -4.4838   -5.7307   -3.2853 H         1 <0>         0.3980
     60 H25         2.9370   -2.2960   13.0299 H         1 <0>         0.4308
@<TRIPOS>BOND
     1    1    2 1
     2    1   36 1
     3    1   37 1
     4    1   38 1
     5    2    7 ar
     6    2    3 ar
     7    3    4 ar
     8    3   39 1
     9    4    5 ar
    10    4   28 1
    11    5    6 ar
    12    5   40 1
    13    6   11 ar
    14    6    7 ar
    15    7    8 ar
    16    8    9 ar
    17    9   10 ar
    18    9   12 1
    19   10   11 ar
    20   12   13 1
    21   12   41 1
    22   13   18 ar
    23   13   14 ar
    24   14   15 ar
    25   14   42 1
    26   15   16 ar
    27   15   43 1
    28   16   17 ar
    29   16   19 1
    30   17   18 ar
    31   17   44 1
    32   18   45 1
    33   19   20 2
    34   19   21 2
    35   19   22 1
    36   22   27 1
    37   22   23 1
    38   22   46 1
    39   23   24 1
    40   23   47 1
    41   23   48 1
    42   24   25 1
    43   24   49 1
    44   24   50 1
    45   25   26 1
    46   25   51 1
    47   25   60 1
    48   26   27 1
    49   26   52 1
    50   26   53 1
    51   27   54 1
    52   27   55 1
    53   28   33 ar
    54   28   29 ar
    55   29   30 ar
    56   29   56 1
    57   30   31 ar
    58   30   35 1
    59   31   32 ar
    60   31   57 1
    61   32   33 ar
    62   32   58 1
    63   33   34 1
    64   35   59 1
@<TRIPOS>MOLECULE
CHEMBL221736
   32    35     0     0     0
SMALL
USER_CHARGES

@<TRIPOS>ATOM
      1 C1         -0.0164    1.3606    0.0095 C.ar      1 <0>        -0.1505
      2 C2          1.1695    2.0826    0.0021 C.ar      1 <0>        -0.0551
      3 C3          2.3855    1.4349   -0.0130 C.ar      1 <0>        -0.1672
      4 C4          2.4309    0.0432   -0.0208 C.ar      1 <0>         0.1922
      5 C5          1.2276   -0.6864   -0.0132 C.ar      1 <0>        -0.1337
      6 C6          0.0021   -0.0041    0.0020 C.ar      1 <0>        -0.0493
      7 C7          1.2573   -2.1036   -0.0206 C.2       1 <0>         0.0145
      8 C8          2.4757   -2.7493   -0.0352 C.2       1 <0>        -0.1417
      9 C9          3.7089   -1.9541   -0.0428 C.2       1 <0>         0.5416
     10 O1          4.7915   -2.5121   -0.0561 O.2       1 <0>        -0.5215
     11 N1          3.6467   -0.6094   -0.0355 N.am      1 <0>        -0.6278
     12 H1          4.4674   -0.0923   -0.0403 H         1 <0>         0.4189
     13 C10         2.5386   -4.2239   -0.0426 C.2       1 <0>         0.1384
     14 C11         2.1078   -5.0316    0.9606 C.2       1 <0>        -0.1779
     15 C12         2.3582   -6.4076    0.5366 C.ar      1 <0>        -0.1086
     16 C13         2.1371   -7.6569    1.1245 C.ar      1 <0>        -0.0692
     17 C14         2.4915   -8.7936    0.4551 C.ar      1 <0>        -0.1471
     18 C15         3.0699   -8.7188   -0.8049 C.ar      1 <0>        -0.0966
     19 C16         3.2974   -7.4984   -1.4031 C.ar      1 <0>        -0.1306
     20 C17         2.9445   -6.3272   -0.7411 C.ar      1 <0>         0.1043
     21 N2          3.0373   -4.9921   -1.0698 N.pl3     1 <0>        -0.5812
     22 H2          3.4017   -4.6459   -1.8993 H         1 <0>         0.4149
     23 H3         -0.9614    1.8832    0.0259 H         1 <0>         0.1333
     24 H4          1.1386    3.1621    0.0078 H         1 <0>         0.1351
     25 H5          3.3022    2.0058   -0.0190 H         1 <0>         0.1360
     26 H6         -0.9252   -0.5577    0.0082 H         1 <0>         0.1386
     27 H7          0.3378   -2.6701   -0.0145 H         1 <0>         0.1504
     28 H8          1.6652   -4.7170    1.8941 H         1 <0>         0.1486
     29 H9          1.6879   -7.7228    2.1044 H         1 <0>         0.1229
     30 H10         2.3209   -9.7583    0.9097 H         1 <0>         0.1230
     31 H11         3.3447   -9.6266   -1.3215 H         1 <0>         0.1256
     32 H12         3.7485   -7.4515   -2.3832 H         1 <0>         0.1198
@<TRIPOS>BOND
     1    1    6 ar
     2    1    2 ar
     3    1   23 1
     4    2    3 ar
     5    2   24 1
     6    3    4 ar
     7    3   25 1
     8    4   11 1
     9    4    5 ar
    10    5    6 ar
    11    5    7 1
    12    6   26 1
    13    7    8 2
    14    7   27 1
    15    8    9 1
    16    8   13 1
    17    9   10 2
    18    9   11 am
    19   11   12 1
    20   13   21 1
    21   13   14 2
    22   14   15 1
    23   14   28 1
    24   15   20 ar
    25   15   16 ar
    26   16   17 ar
    27   16   29 1
    28   17   18 ar
    29   17   30 1
    30   18   19 ar
    31   18   31 1
    32   19   20 ar
    33   19   32 1
    34   20   21 1
    35   21   22 1
@<TRIPOS>MOLECULE
CHEMBL258240
   56    60     0     0     0
SMALL
USER_CHARGES

@<TRIPOS>ATOM
      1 C1         -0.7580   -1.0447    1.4059 C.3       1 <0>         0.0607
      2 N1          0.2347   -0.7171    0.3795 N.pl3     1 <0>        -0.4508
      3 C2          0.3009   -1.2373   -0.8848 C.2       1 <0>        -0.0320
      4 C3          1.3612   -0.6656   -1.4930 C.2       1 <0>        -0.0194
      5 N2          1.9350    0.1826   -0.6335 N.2       1 <0>        -0.4526
      6 C4          1.2665    0.1699    0.5006 C.2       1 <0>         0.2628
      7 C5          1.5796    0.9715    1.6959 C.2       1 <0>        -0.0380
      8 C6          2.7198    1.6545    1.9841 C.2       1 <0>        -0.1001
      9 C7          2.8248    2.3678    3.1919 C.ar      1 <0>         0.1590
     10 C8          1.6898    2.3072    4.0300 C.ar      1 <0>        -0.2036
     11 S1          0.5536    1.2927    3.1204 S.3       1 <0>         0.1053
     12 C9          1.6472    2.9591    5.2497 C.ar      1 <0>         0.2112
     13 C10         2.7683    3.6890    5.6388 C.ar      1 <0>        -0.2302
     14 C11         3.8606    3.7228    4.7876 C.ar      1 <0>         0.1617
     15 N3          3.8738    3.0968    3.6386 N.ar      1 <0>        -0.4709
     16 O1          0.5473    2.8901    6.0422 O.3       1 <0>        -0.2381
     17 C12         0.6099    3.4657    7.2728 C.ar      1 <0>         0.0518
     18 C13         0.8073    2.6784    8.3973 C.ar      1 <0>        -0.0803
     19 C14         0.8709    3.2620    9.6474 C.ar      1 <0>        -0.0634
     20 C15         0.7369    4.6379    9.7796 C.ar      1 <0>         0.1573
     21 C16         0.5392    5.4272    8.6545 C.ar      1 <0>        -0.1430
     22 C17         0.4817    4.8431    7.4026 C.ar      1 <0>         0.0974
     23 F1          0.2949    5.6106    6.3066 F         1 <0>        -0.1211
     24 N4          0.8006    5.2292   11.0475 N.pl3     1 <0>        -0.6255
     25 C18         1.7749    4.8741   11.9084 C.2       1 <0>         0.5082
     26 S2          2.8642    3.6188   11.4980 S.2       1 <0>        -0.4738
     27 N5          1.8915    5.5073   13.0925 N.am      1 <0>        -0.6414
     28 C19         2.8658    5.1523   13.9534 C.2       1 <0>         0.4829
     29 O2          3.6373    4.2633   13.6628 O.2       1 <0>        -0.3888
     30 C20         2.9963    5.8603   15.2773 C.3       1 <0>        -0.0932
     31 C21         4.1547    5.2787   16.0460 C.ar      1 <0>        -0.0803
     32 C22         3.9523    4.2069   16.8952 C.ar      1 <0>        -0.1013
     33 C23         5.0149    3.6734   17.6003 C.ar      1 <0>        -0.1182
     34 C24         6.2800    4.2114   17.4558 C.ar      1 <0>        -0.1128
     35 C25         6.4826    5.2826   16.6059 C.ar      1 <0>        -0.1181
     36 C26         5.4208    5.8134   15.8975 C.ar      1 <0>        -0.1012
     37 H1         -1.6112   -0.3726    1.3138 H         1 <0>         0.0860
     38 H2         -1.0907   -2.0743    1.2741 H         1 <0>         0.0979
     39 H3         -0.3108   -0.9309    2.3934 H         1 <0>         0.0905
     40 H4         -0.3689   -1.9674   -1.3144 H         1 <0>         0.1850
     41 H5          1.6907   -0.8607   -2.5028 H         1 <0>         0.1803
     42 H6          3.5440    1.6490    1.2862 H         1 <0>         0.1608
     43 H7          2.7852    4.2162    6.5813 H         1 <0>         0.1496
     44 H8          4.7331    4.2867    5.0829 H         1 <0>         0.1697
     45 H9          0.9109    1.6082    8.2954 H         1 <0>         0.1527
     46 H10         1.0247    2.6481   10.5225 H         1 <0>         0.1631
     47 H11         0.4349    6.4973    8.7567 H         1 <0>         0.1493
     48 H12         0.1435    5.8943   11.3061 H         1 <0>         0.4123
     49 H13         1.2743    6.2186   13.3250 H         1 <0>         0.4127
     50 H14         3.1707    6.9225   15.1057 H         1 <0>         0.1093
     51 H15         2.0783    5.7309   15.8506 H         1 <0>         0.1093
     52 H16         2.9638    3.7866   17.0081 H         1 <0>         0.1201
     53 H17         4.8566    2.8365   18.2643 H         1 <0>         0.1238
     54 H18         7.1101    3.7951   18.0072 H         1 <0>         0.1233
     55 H19         7.4710    5.7032   16.4932 H         1 <0>         0.1239
     56 H20         5.5798    6.6479   15.2307 H         1 <0>         0.1203
@<TRIPOS>BOND
     1    1    2 1
     2    1   37 1
     3    1   38 1
     4    1   39 1
     5    2    6 1
     6    2    3 1
     7    3    4 2
     8    3   40 1
     9    4    5 1
    10    4   41 1
    11    5    6 2
    12    6    7 1
    13    7   11 1
    14    7    8 2
    15    8    9 1
    16    8   42 1
    17    9   15 ar
    18    9   10 ar
    19   10   11 1
    20   10   12 ar
    21   12   13 ar
    22   12   16 1
    23   13   14 ar
    24   13   43 1
    25   14   15 ar
    26   14   44 1
    27   16   17 1
    28   17   22 ar
    29   17   18 ar
    30   18   19 ar
    31   18   45 1
    32   19   20 ar
    33   19   46 1
    34   20   21 ar
    35   20   24 1
    36   21   22 ar
    37   21   47 1
    38   22   23 1
    39   24   25 1
    40   24   48 1
    41   25   26 2
    42   25   27 1
    43   27   28 am
    44   27   49 1
    45   28   29 2
    46   28   30 1
    47   30   31 1
    48   30   50 1
    49   30   51 1
    50   31   36 ar
    51   31   32 ar
    52   32   33 ar
    53   32   52 1
    54   33   34 ar
    55   33   53 1
    56   34   35 ar
    57   34   54 1
    58   35   36 ar
    59   35   55 1
    60   36   56 1
@<TRIPOS>MOLECULE
CHEMBL258240__1
   57    61     0     0     0
SMALL
USER_CHARGES

@<TRIPOS>ATOM
      1 C1         -0.4363   -1.5060    1.5911 C.3       1 <0>         0.0465
      2 N1          0.4966   -1.1300    0.5260 N.pl3     1 <0>        -0.3974
      3 C2          0.4487   -1.5375   -0.7798 C.2       1 <0>         0.0360
      4 C3          1.4900   -0.9588   -1.4136 C.2       1 <0>         0.0169
      5 N2          2.1631   -0.2156   -0.5291 N.pl3     1 <0>        -0.4643
      6 C4          1.5761   -0.3016    0.6460 C.cat     1 <0>         0.3956
      7 C5          2.0107    0.3762    1.8795 C.2       1 <0>        -0.1730
      8 C6          3.2760    0.6549    2.2930 C.2       1 <0>        -0.0287
      9 C7          3.4850    1.3174    3.5162 C.ar      1 <0>         0.1258
     10 C8          2.3135    1.6463    4.2331 C.ar      1 <0>        -0.1814
     11 S1          1.0069    1.0414    3.1965 S.3       1 <0>         0.1785
     12 C9          2.3626    2.2991    5.4520 C.ar      1 <0>         0.2079
     13 C10         3.6150    2.6302    5.9648 C.ar      1 <0>        -0.1993
     14 C11         4.7388    2.2896    5.2302 C.ar      1 <0>         0.1698
     15 N3          4.6634    1.6722    4.0789 N.ar      1 <0>        -0.4589
     16 O1          1.2260    2.6077    6.1269 O.3       1 <0>        -0.2334
     17 C12         1.3478    3.1544    7.3663 C.ar      1 <0>         0.0374
     18 C13         1.1620    2.3670    8.4927 C.ar      1 <0>        -0.0771
     19 C14         1.2855    2.9211    9.7516 C.ar      1 <0>        -0.0630
     20 C15         1.5954    4.2676    9.8908 C.ar      1 <0>         0.1689
     21 C16         1.7817    5.0570    8.7639 C.ar      1 <0>        -0.1427
     22 C17         1.6640    4.5003    7.5037 C.ar      1 <0>         0.0991
     23 F1          1.8504    5.2661    6.4065 F         1 <0>        -0.1221
     24 N4          1.7197    4.8294   11.1677 N.pl3     1 <0>        -0.6288
     25 C18         2.4318    4.1919   12.1180 C.2       1 <0>         0.5100
     26 S2          3.0872    2.6423   11.8014 S.2       1 <0>        -0.4746
     27 N5          2.6280    4.7744   13.3174 N.am      1 <0>        -0.6397
     28 C19         3.3402    4.1370   14.2677 C.2       1 <0>         0.4833
     29 O2          3.8043    3.0395   14.0435 O.2       1 <0>        -0.3878
     30 C20         3.5596    4.7883   15.6088 C.3       1 <0>        -0.0927
     31 C21         4.3801    3.8749   16.4826 C.ar      1 <0>        -0.0823
     32 C22         3.7536    2.9440   17.2900 C.ar      1 <0>        -0.1013
     33 C23         4.5063    2.1062   18.0915 C.ar      1 <0>        -0.1177
     34 C24         5.8856    2.1990   18.0852 C.ar      1 <0>        -0.1116
     35 C25         6.5121    3.1292   17.2772 C.ar      1 <0>        -0.1178
     36 C26         5.7596    3.9641   16.4725 C.ar      1 <0>        -0.1014
     37 H1         -1.2603   -0.7931    1.6208 H         1 <0>         0.1155
     38 H2         -0.8268   -2.5048    1.3963 H         1 <0>         0.1279
     39 H3          0.0841   -1.4998    2.5488 H         1 <0>         0.1141
     40 H4         -0.2842   -2.1975   -1.2199 H         1 <0>         0.2309
     41 H5          1.7381   -1.0765   -2.4581 H         1 <0>         0.2309
     42 H6          4.1196    0.3676    1.6830 H         1 <0>         0.1612
     43 H7          3.7073    3.1405    6.9122 H         1 <0>         0.1605
     44 H8          5.7129    2.5432    5.6217 H         1 <0>         0.1807
     45 H9          0.9202    1.3199    8.3852 H         1 <0>         0.1532
     46 H10         1.1406    2.3072   10.6282 H         1 <0>         0.1661
     47 H11         2.0228    6.1042    8.8715 H         1 <0>         0.1526
     48 H12         1.2932    5.6772   11.3681 H         1 <0>         0.4145
     49 H13         2.2567    5.6524   13.4967 H         1 <0>         0.4143
     50 H14         4.0878    5.7319   15.4724 H         1 <0>         0.1102
     51 H15         2.5964    4.9764   16.0833 H         1 <0>         0.1104
     52 H16         2.6761    2.8716   17.2948 H         1 <0>         0.1201
     53 H17         4.0168    1.3794   18.7228 H         1 <0>         0.1245
     54 H18         6.4736    1.5449   18.7120 H         1 <0>         0.1241
     55 H19         7.5896    3.2019   17.2726 H         1 <0>         0.1244
     56 H20         6.2492    4.6884   15.8384 H         1 <0>         0.1200
     57 H21         2.9565    0.3075   -0.7236 H         1 <0>         0.4652
@<TRIPOS>BOND
     1    1    2 1
     2    1   37 1
     3    1   38 1
     4    1   39 1
     5    2    6 1
     6    2    3 1
     7    3    4 2
     8    3   40 1
     9    4    5 1
    10    4   41 1
    11    5    6 2
    12    5   57 1
    13    6    7 1
    14    7   11 1
    15    7    8 2
    16    8    9 1
    17    8   42 1
    18    9   15 ar
    19    9   10 ar
    20   10   11 1
    21   10   12 ar
    22   12   13 ar
    23   12   16 1
    24   13   14 ar
    25   13   43 1
    26   14   15 ar
    27   14   44 1
    28   16   17 1
    29   17   22 ar
    30   17   18 ar
    31   18   19 ar
    32   18   45 1
    33   19   20 ar
    34   19   46 1
    35   20   21 ar
    36   20   24 1
    37   21   22 ar
    38   21   47 1
    39   22   23 1
    40   24   25 1
    41   24   48 1
    42   25   26 2
    43   25   27 1
    44   27   28 am
    45   27   49 1
    46   28   29 2
    47   28   30 1
    48   30   31 1
    49   30   50 1
    50   30   51 1
    51   31   36 ar
    52   31   32 ar
    53   32   33 ar
    54   32   52 1
    55   33   34 ar
    56   33   53 1
    57   34   35 ar
    58   34   54 1
    59   35   36 ar
    60   35   55 1
    61   36   56 1
@<TRIPOS>MOLECULE
CHEMBL1163016
   69    73     0     0     0
SMALL
USER_CHARGES

@<TRIPOS>ATOM
      1 C1          1.3620    0.8394    1.4243 C.3       1 <0>        -0.1352
      2 C2          1.2135   -0.6867    1.2356 C.3       1 <0>         0.1465
      3 C3          1.8259   -1.0446   -0.1164 C.3       1 <0>        -0.1174
      4 C4          1.9668   -2.5608   -0.2506 C.3       1 <0>         0.1435
      5 C5          2.8805   -3.0633    0.8671 C.3       1 <0>        -0.1171
      6 C6          2.2835   -2.7289    2.2319 C.3       1 <0>         0.1089
      7 N1          1.8702   -1.3458    2.3451 N.3       1 <0>        -0.3867
      8 O1          1.2102   -1.0691    3.6211 O.3       1 <0>        -0.4027
      9 C7          3.3734   -2.9951    3.2941 C.3       1 <0>        -0.1436
     10 C8          1.1188   -3.6810    2.5288 C.3       1 <0>        -0.1776
     11 N2          2.5733   -2.8769   -1.5498 N.am      1 <0>        -0.7239
     12 C9          2.3539   -4.0775   -2.1216 C.2       1 <0>         0.5611
     13 O2          1.6539   -4.8985   -1.5618 O.2       1 <0>        -0.5274
     14 C10         2.9646   -4.3959   -3.4300 C.ar      1 <0>        -0.1387
     15 C11         3.7738   -3.4561   -4.0722 C.ar      1 <0>        -0.0734
     16 C12         4.3440   -3.7531   -5.2934 C.ar      1 <0>        -0.1251
     17 C13         4.1183   -4.9799   -5.8875 C.ar      1 <0>        -0.0615
     18 C14         3.3125   -5.9263   -5.2565 C.ar      1 <0>        -0.0289
     19 C15         2.7390   -5.6368   -4.0230 C.ar      1 <0>        -0.0247
     20 C16         3.0711   -7.2432   -5.8978 C.2       1 <0>         0.1538
     21 C17         3.6713   -7.6988   -7.0754 C.2       1 <0>        -0.2499
     22 C18         3.1793   -8.9691   -7.3318 C.2       1 <0>         0.2717
     23 N3          3.4165   -9.8485   -8.3168 N.2       1 <0>        -0.4716
     24 C19         2.8133  -11.0166   -8.3419 C.2       1 <0>         0.1961
     25 C20         1.9092  -11.3659   -7.3386 C.2       1 <0>        -0.2432
     26 C21         1.6552  -10.4809   -6.3259 C.2       1 <0>         0.4356
     27 N4          2.2984   -9.2710   -6.3248 N.pl3     1 <0>        -0.3231
     28 N5          2.2579   -8.1815   -5.4476 N.2       1 <0>        -0.2849
     29 N6          0.7652  -10.8019   -5.3220 N.pl3     1 <0>        -0.6745
     30 C22        -0.3461   -9.9876   -5.0867 C.ar      1 <0>         0.2057
     31 C23        -0.6401   -8.9434   -5.9554 C.ar      1 <0>        -0.1630
     32 C24        -1.7383   -8.1389   -5.7226 C.ar      1 <0>        -0.0610
     33 C25        -2.5478   -8.3700   -4.6264 C.ar      1 <0>        -0.1747
     34 C26        -2.2595   -9.4115   -3.7558 C.ar      1 <0>         0.1463
     35 C27        -1.1610  -10.2243   -3.9883 C.ar      1 <0>        -0.1921
     36 O3         -3.0562   -9.6371   -2.6781 O.3       1 <0>        -0.4962
     37 C28        -0.2879   -0.9975    1.2166 C.3       1 <0>        -0.1767
     38 H1          2.4197    1.1020    1.4430 H         1 <0>         0.0607
     39 H2          0.8737    1.3569    0.5985 H         1 <0>         0.0583
     40 H3          0.8973    1.1362    2.3646 H         1 <0>         0.0648
     41 H4          1.1854   -0.6679   -0.9169 H         1 <0>         0.0862
     42 H5          2.8105   -0.5799   -0.2041 H         1 <0>         0.0811
     43 H6          0.9932   -3.0397   -0.1893 H         1 <0>         0.0950
     44 H7          3.0004   -4.1454    0.7781 H         1 <0>         0.0817
     45 H8          3.8610   -2.5911    0.7735 H         1 <0>         0.0762
     46 H9          1.6279   -1.4971    4.3810 H         1 <0>         0.3761
     47 H10         4.2391   -2.3642    3.0924 H         1 <0>         0.0657
     48 H11         2.9795   -2.7658    4.2843 H         1 <0>         0.0561
     49 H12         3.6706   -4.0431    3.2550 H         1 <0>         0.0651
     50 H13         1.4818   -4.7088    2.5334 H         1 <0>         0.0638
     51 H14         0.6931   -3.4416    3.5033 H         1 <0>         0.0613
     52 H15         0.3534   -3.5694    1.7607 H         1 <0>         0.0587
     53 H16         3.1318   -2.2217   -1.9966 H         1 <0>         0.4002
     54 H17         3.9534   -2.4954   -3.6126 H         1 <0>         0.1294
     55 H18         4.9688   -3.0234   -5.7869 H         1 <0>         0.1381
     56 H19         4.5670   -5.2061   -6.8435 H         1 <0>         0.1372
     57 H20         2.1176   -6.3689   -3.5287 H         1 <0>         0.1431
     58 H21         4.3878   -7.1588   -7.6766 H         1 <0>         0.1660
     59 H22         3.0188  -11.7097   -9.1443 H         1 <0>         0.1853
     60 H23         1.4140  -12.3254   -7.3609 H         1 <0>         0.1698
     61 H24         0.9106  -11.5927   -4.7795 H         1 <0>         0.4259
     62 H25        -0.0092   -8.7606   -6.8127 H         1 <0>         0.1118
     63 H26        -1.9648   -7.3274   -6.3983 H         1 <0>         0.1291
     64 H27        -3.4056   -7.7389   -4.4469 H         1 <0>         0.1306
     65 H28        -0.9373  -11.0376   -3.3139 H         1 <0>         0.1321
     66 H29        -3.7877  -10.2456   -2.8503 H         1 <0>         0.3931
     67 H30        -0.7595   -0.4617    0.3928 H         1 <0>         0.0609
     68 H31        -0.4354   -2.0694    1.0847 H         1 <0>         0.0547
     69 H32        -0.7361   -0.6824    2.1589 H         1 <0>         0.0677
@<TRIPOS>BOND
     1    1    2 1
     2    1   38 1
     3    1   39 1
     4    1   40 1
     5    2    7 1
     6    2    3 1
     7    2   37 1
     8    3    4 1
     9    3   41 1
    10    3   42 1
    11    4    5 1
    12    4   11 1
    13    4   43 1
    14    5    6 1
    15    5   44 1
    16    5   45 1
    17    6    7 1
    18    6    9 1
    19    6   10 1
    20    7    8 1
    21    8   46 1
    22    9   47 1
    23    9   48 1
    24    9   49 1
    25   10   50 1
    26   10   51 1
    27   10   52 1
    28   11   12 am
    29   11   53 1
    30   12   13 2
    31   12   14 1
    32   14   19 ar
    33   14   15 ar
    34   15   16 ar
    35   15   54 1
    36   16   17 ar
    37   16   55 1
    38   17   18 ar
    39   17   56 1
    40   18   19 ar
    41   18   20 1
    42   19   57 1
    43   20   28 2
    44   20   21 1
    45   21   22 2
    46   21   58 1
    47   22   27 1
    48   22   23 1
    49   23   24 2
    50   24   25 1
    51   24   59 1
    52   25   26 2
    53   25   60 1
    54   26   27 1
    55   26   29 1
    56   27   28 1
    57   29   30 1
    58   29   61 1
    59   30   35 ar
    60   30   31 ar
    61   31   32 ar
    62   31   62 1
    63   32   33 ar
    64   32   63 1
    65   33   34 ar
    66   33   64 1
    67   34   35 ar
    68   34   36 1
    69   35   65 1
    70   36   66 1
    71   37   67 1
    72   37   68 1
    73   37   69 1
@<TRIPOS>MOLECULE
CHEMBL370515
   51    54     0     0     0
SMALL
USER_CHARGES

@<TRIPOS>ATOM
      1 C1          0.6995    1.3992    0.5590 C.3       1 <0>        -0.0736
      2 C2          0.6208   -0.0971    0.3973 C.2       1 <0>         0.2575
      3 N1          0.2578   -0.7371   -0.7164 N.2       1 <0>        -0.5414
      4 C3          0.2964   -2.0370   -0.5201 C.2       1 <0>         0.3766
      5 O1          0.6921   -2.2540    0.7465 O.3       1 <0>        -0.0935
      6 N2          0.9015   -0.9725    1.3206 N.2       1 <0>        -0.3467
      7 C4         -0.0368   -3.0752   -1.5153 C.2       1 <0>        -0.1206
      8 C5         -0.4395   -2.8605   -2.8224 C.2       1 <0>         0.1529
      9 N3         -0.6486   -4.0487   -3.4105 N.pl3     1 <0>        -0.2317
     10 C6         -0.3861   -5.0544   -2.4983 C.2       1 <0>        -0.1083
     11 C7          0.0018   -4.4693   -1.3134 C.2       1 <0>        -0.0201
     12 C8          0.3903   -5.1827   -0.0441 C.3       1 <0>        -0.0313
     13 C9          1.8213   -4.7998    0.3387 C.3       1 <0>        -0.1549
     14 C10        -0.5643   -4.7781    1.0810 C.3       1 <0>        -0.1546
     15 C11        -0.5444   -6.4000   -2.9126 C.2       1 <0>         0.5394
     16 N4         -0.9357   -6.6522   -4.1504 N.2       1 <0>        -0.6221
     17 C12        -1.1846   -5.6722   -5.0172 C.2       1 <0>         0.3363
     18 N5         -1.0589   -4.4129   -4.7016 N.2       1 <0>        -0.3388
     19 N6         -0.2929   -7.4350   -2.0351 N.pl3     1 <0>        -0.6144
     20 C13        -0.3222   -8.7599   -2.4881 C.ar      1 <0>         0.0985
     21 C14        -0.1743   -9.0329   -3.8367 C.ar      1 <0>        -0.0416
     22 C15        -0.2041  -10.3554   -4.2851 C.ar      1 <0>        -0.1537
     23 C16        -0.3832  -11.3962   -3.3677 C.ar      1 <0>         0.1858
     24 C17        -0.5300  -11.1129   -2.0229 C.ar      1 <0>        -0.1742
     25 C18        -0.4945   -9.8022   -1.5802 C.ar      1 <0>         0.1354
     26 F1         -0.6326   -9.5323   -0.2637 F         1 <0>        -0.1191
     27 F2         -0.4132  -12.6772   -3.7959 F         1 <0>        -0.0990
     28 C19        -0.0475  -10.6537   -5.7220 C.2       1 <0>         0.5751
     29 O2         -0.0737  -11.8057   -6.1101 O.2       1 <0>        -0.4972
     30 N7          0.1246   -9.6492   -6.6039 N.am      1 <0>        -0.5938
     31 O3          0.2748   -9.9355   -7.9825 O.3       1 <0>        -0.1368
     32 C20         0.4489   -8.7771   -8.8011 C.3       1 <0>        -0.0033
     33 H1          1.6970    1.7423    0.2843 H         1 <0>         0.0974
     34 H2         -0.0388    1.8738   -0.0872 H         1 <0>         0.0979
     35 H3          0.4974    1.6636    1.5970 H         1 <0>         0.0919
     36 H4         -0.5651   -1.8958   -3.2914 H         1 <0>         0.2028
     37 H5          0.3319   -6.2599   -0.2003 H         1 <0>         0.0676
     38 H6          1.8797   -3.7226    0.4949 H         1 <0>         0.0753
     39 H7          2.1023   -5.3158    1.2568 H         1 <0>         0.0714
     40 H8          2.5014   -5.0880   -0.4628 H         1 <0>         0.0579
     41 H9         -1.5837   -5.0509    0.8083 H         1 <0>         0.0581
     42 H10        -0.2833   -5.2941    1.9991 H         1 <0>         0.0719
     43 H11        -0.5059   -3.7009    1.2372 H         1 <0>         0.0740
     44 H12        -1.5015   -5.9293   -6.0172 H         1 <0>         0.2267
     45 H13        -0.0958   -7.2448   -1.1046 H         1 <0>         0.4301
     46 H14        -0.0367   -8.2255   -4.5407 H         1 <0>         0.1819
     47 H15        -0.6686  -11.9169   -1.3151 H         1 <0>         0.1684
     48 H16         0.1454   -8.7302   -6.2943 H         1 <0>         0.4067
     49 H17         0.5568   -9.0809   -9.8423 H         1 <0>         0.1168
     50 H18        -0.4203   -8.1271   -8.7004 H         1 <0>         0.0590
     51 H19         1.3430   -8.2398   -8.4848 H         1 <0>         0.0575
@<TRIPOS>BOND
     1    1    2 1
     2    1   33 1
     3    1   34 1
     4    1   35 1
     5    2    6 2
     6    2    3 1
     7    3    4 2
     8    4    5 1
     9    4    7 1
    10    5    6 1
    11    7   11 1
    12    7    8 2
    13    8    9 1
    14    8   36 1
    15    9   18 1
    16    9   10 1
    17   10   11 2
    18   10   15 1
    19   11   12 1
    20   12   13 1
    21   12   14 1
    22   12   37 1
    23   13   38 1
    24   13   39 1
    25   13   40 1
    26   14   41 1
    27   14   42 1
    28   14   43 1
    29   15   16 2
    30   15   19 1
    31   16   17 1
    32   17   18 2
    33   17   44 1
    34   19   20 1
    35   19   45 1
    36   20   25 ar
    37   20   21 ar
    38   21   22 ar
    39   21   46 1
    40   22   23 ar
    41   22   28 1
    42   23   24 ar
    43   23   27 1
    44   24   25 ar
    45   24   47 1
    46   25   26 1
    47   28   29 2
    48   28   30 am
    49   30   31 1
    50   30   48 1
    51   31   32 1
    52   32   49 1
    53   32   50 1
    54   32   51 1
@<TRIPOS>MOLECULE
CHEMBL201511
   46    49     0     0     0
SMALL
USER_CHARGES

@<TRIPOS>ATOM
      1 C1         -0.0173    1.4248    0.0099 C.3       1 <0>         0.0219
      2 O1          0.0021   -0.0041    0.0020 O.3       1 <0>        -0.2989
      3 C2          0.6262   -0.6188    1.0422 C.ar      1 <0>         0.1537
      4 C3          1.2002    0.1373    2.0476 C.ar      1 <0>        -0.2002
      5 C4          1.8411   -0.4952    3.1166 C.ar      1 <0>         0.0434
      6 C5          1.8998   -1.8907    3.1658 C.ar      1 <0>        -0.2051
      7 C6          1.3241   -2.6416    2.1574 C.ar      1 <0>         0.1508
      8 C7          0.6817   -2.0088    1.0966 C.ar      1 <0>         0.0412
      9 O2          0.1118   -2.7500    0.1089 O.3       1 <0>        -0.3119
     10 C8          0.9367   -3.0851   -1.0089 C.3       1 <0>         0.0348
     11 O3          1.3808   -3.9995    2.2046 O.3       1 <0>        -0.2985
     12 C9          2.0505   -4.5823    3.3244 C.3       1 <0>         0.0232
     13 C10         2.4552    0.3092    4.1913 C.2       1 <0>        -0.0878
     14 C11         2.0736    0.3479    5.5262 C.2       1 <0>        -0.0050
     15 C12         2.9966    1.2998    6.1881 C.2       1 <0>         0.5546
     16 O4          2.9808    1.6021    7.3641 O.2       1 <0>        -0.4385
     17 N1          3.8544    1.7718    5.2674 N.am      1 <0>        -0.6881
     18 C13         3.6014    1.2286    4.0649 C.2       1 <0>         0.5627
     19 O5          4.2139    1.4594    3.0411 O.2       1 <0>        -0.4460
     20 C14         0.9771   -0.4023    6.1545 C.2       1 <0>        -0.1498
     21 C15         0.9726   -1.7313    6.4731 C.2       1 <0>         0.1017
     22 N2         -0.2165   -2.0616    7.0401 N.pl3     1 <0>        -0.5805
     23 H1         -0.4547   -2.9495    7.3496 H         1 <0>         0.4220
     24 C16        -1.0377   -0.9549    7.1137 C.ar      1 <0>         0.0940
     25 C17        -0.3321    0.1318    6.5711 C.ar      1 <0>        -0.0729
     26 C18        -0.9223    1.3920    6.5199 C.ar      1 <0>        -0.0745
     27 C19        -2.1997    1.5675    7.0067 C.ar      1 <0>        -0.1346
     28 C20        -2.8965    0.4962    7.5457 C.ar      1 <0>        -0.0973
     29 C21        -2.3269   -0.7582    7.5963 C.ar      1 <0>        -0.1232
     30 H2          1.0053    1.8021    0.0021 H         1 <0>         0.0596
     31 H3         -0.5445    1.7859   -0.8732 H         1 <0>         0.1057
     32 H4         -0.5275    1.7763    0.9067 H         1 <0>         0.0593
     33 H5          1.1535    1.2155    2.0068 H         1 <0>         0.1390
     34 H6          2.3947   -2.3822    3.9904 H         1 <0>         0.1363
     35 H7          0.3608   -3.6760   -1.7211 H         1 <0>         0.0941
     36 H8          1.2835   -2.1713   -1.4914 H         1 <0>         0.0460
     37 H9          1.7948   -3.6635   -0.6667 H         1 <0>         0.0454
     38 H10         3.0868   -4.2449    3.3439 H         1 <0>         0.0586
     39 H11         1.5520   -4.2778    4.2447 H         1 <0>         0.0554
     40 H12         2.0235   -5.6686    3.2389 H         1 <0>         0.1052
     41 H13         4.5602    2.4125    5.4469 H         1 <0>         0.4317
     42 H14         1.7904   -2.4152    6.2998 H         1 <0>         0.1748
     43 H15        -0.3816    2.2278    6.1010 H         1 <0>         0.1192
     44 H16        -2.6600    2.5437    6.9688 H         1 <0>         0.1262
     45 H17        -3.8968    0.6450    7.9246 H         1 <0>         0.1287
     46 H18        -2.8777   -1.5852    8.0195 H         1 <0>         0.1235
@<TRIPOS>BOND
     1    1    2 1
     2    1   30 1
     3    1   31 1
     4    1   32 1
     5    2    3 1
     6    3    8 ar
     7    3    4 ar
     8    4    5 ar
     9    4   33 1
    10    5    6 ar
    11    5   13 1
    12    6    7 ar
    13    6   34 1
    14    7    8 ar
    15    7   11 1
    16    8    9 1
    17    9   10 1
    18   10   35 1
    19   10   36 1
    20   10   37 1
    21   11   12 1
    22   12   38 1
    23   12   39 1
    24   12   40 1
    25   13   18 1
    26   13   14 2
    27   14   15 1
    28   14   20 1
    29   15   16 2
    30   15   17 am
    31   17   18 am
    32   17   41 1
    33   18   19 2
    34   20   25 1
    35   20   21 2
    36   21   22 1
    37   21   42 1
    38   22   23 1
    39   22   24 1
    40   24   29 ar
    41   24   25 ar
    42   25   26 ar
    43   26   27 ar
    44   26   43 1
    45   27   28 ar
    46   27   44 1
    47   28   29 ar
    48   28   45 1
    49   29   46 1
@<TRIPOS>MOLECULE
CHEMBL245377
   68    73     0     0     0
SMALL
USER_CHARGES

@<TRIPOS>ATOM
      1 C1          2.4714    0.2418   -1.4362 C.3       1 <0>        -0.0458
      2 N1          1.8711   -1.0651   -1.1368 N.4       1 <0>        -0.3892
      3 C2          0.4398   -0.8931   -0.8549 C.3       1 <0>        -0.0014
      4 C3         -0.1899   -2.2565   -0.5614 C.3       1 <0>         0.0261
      5 N2          0.4846   -2.8661    0.5933 N.3       1 <0>        -0.5228
      6 C4          1.9231   -3.0217    0.3352 C.3       1 <0>         0.0180
      7 C5          2.5355   -1.6520    0.0343 C.3       1 <0>         0.0002
      8 C6         -0.1299   -4.1539    0.9425 C.3       1 <0>         0.0361
      9 C7          0.4165   -4.6293    2.2640 C.2       1 <0>         0.5147
     10 O1          1.2372   -3.9612    2.8566 O.2       1 <0>        -0.5053
     11 N3         -0.0067   -5.7970    2.7874 N.am      1 <0>        -0.6655
     12 C8          0.5680   -6.2844    3.9666 C.ar      1 <0>         0.1530
     13 C9          0.9772   -5.4005    4.9583 C.ar      1 <0>        -0.1040
     14 C10         1.5445   -5.8822    6.1225 C.ar      1 <0>        -0.1018
     15 C11         1.7081   -7.2400    6.3078 C.ar      1 <0>        -0.0899
     16 C12         1.3000   -8.1363    5.3181 C.ar      1 <0>         0.0025
     17 C13         0.7245   -7.6487    4.1496 C.ar      1 <0>        -0.1003
     18 C14         0.3796   -8.8309    3.2773 C.3       1 <0>         0.0099
     19 C15         0.8016  -10.0572    4.0478 C.2       1 <0>        -0.2361
     20 C16         1.3583   -9.6193    5.2608 C.2       1 <0>         0.0943
     21 N4          1.7362  -10.6837    5.9432 N.2       1 <0>        -0.2468
     22 N5          1.4489  -11.8239    5.1831 N.pl3     1 <0>        -0.4574
     23 H1          1.6227  -12.7419    5.4437 H         1 <0>         0.4476
     24 C17         0.8603  -11.4176    4.0219 C.2       1 <0>         0.1718
     25 C18         0.3943  -12.2935    2.9232 C.2       1 <0>        -0.0723
     26 C19        -0.3571  -13.4285    3.1924 C.2       1 <0>        -0.1185
     27 C20        -0.7664  -14.2089    2.1457 C.2       1 <0>        -0.0448
     28 S1         -0.0879  -13.3421    0.7408 S.3       1 <0>         0.1214
     29 C21         0.6913  -11.9973    1.6183 C.2       1 <0>        -0.1402
     30 C22        -1.5403  -15.4135    2.1710 C.1       1 <0>        -0.0802
     31 C23        -2.1748  -16.4011    2.1917 C.1       1 <0>        -0.1162
     32 C24        -2.9704  -17.6393    2.2177 C.3       1 <0>         0.1752
     33 O2         -3.1581  -18.1130    0.8826 O.3       1 <0>        -0.3107
     34 C25        -3.8771  -19.2559    0.7289 C.ar      1 <0>         0.1254
     35 C26        -4.3962  -19.9050    1.8397 C.ar      1 <0>        -0.2095
     36 C27        -5.1270  -21.0664    1.6807 C.ar      1 <0>        -0.0789
     37 C28        -5.3410  -21.5823    0.4159 C.ar      1 <0>        -0.1539
     38 C29        -4.8243  -20.9375   -0.6928 C.ar      1 <0>        -0.0789
     39 C30        -4.0980  -19.7725   -0.5396 C.ar      1 <0>        -0.1485
     40 H2          3.5333    0.1142   -1.6467 H         1 <0>         0.1243
     41 H3          1.9785    0.6775   -2.3053 H         1 <0>         0.1241
     42 H4          2.3479    0.9034   -0.5788 H         1 <0>         0.1236
     43 H5          0.3157   -0.2417    0.0102 H         1 <0>         0.1391
     44 H6         -0.0496   -0.4454   -1.7199 H         1 <0>         0.1375
     45 H7         -1.2488   -2.1274   -0.3376 H         1 <0>         0.1259
     46 H8         -0.0780   -2.9037   -1.4314 H         1 <0>         0.0631
     47 H9          2.4058   -3.4510    1.2133 H         1 <0>         0.1400
     48 H10         2.0699   -3.6815   -0.5199 H         1 <0>         0.0577
     49 H11         3.5997   -1.7670   -0.1714 H         1 <0>         0.1362
     50 H12         2.4005   -0.9968    0.8949 H         1 <0>         0.1400
     51 H13        -1.2104   -4.0320    1.0188 H         1 <0>         0.1221
     52 H14         0.0993   -4.8873    0.1695 H         1 <0>         0.0812
     53 H15        -0.7096   -6.2996    2.3466 H         1 <0>         0.4133
     54 H16         0.8520   -4.3369    4.8187 H         1 <0>         0.1456
     55 H17         1.8617   -5.1929    6.8910 H         1 <0>         0.1358
     56 H18         2.1529   -7.6098    7.2198 H         1 <0>         0.1319
     57 H19        -0.6937   -8.8574    3.0889 H         1 <0>         0.0923
     58 H20         0.9250   -8.7737    2.3354 H         1 <0>         0.0896
     59 H21        -0.6136  -13.6910    4.2081 H         1 <0>         0.1424
     60 H22         1.2539  -11.1646    1.2226 H         1 <0>         0.1960
     61 H23        -2.4460  -18.3959    2.8013 H         1 <0>         0.0967
     62 H24        -3.9407  -17.4382    2.6717 H         1 <0>         0.0966
     63 H25        -4.2287  -19.5028    2.8279 H         1 <0>         0.1292
     64 H26        -5.5314  -21.5721    2.5451 H         1 <0>         0.1276
     65 H27        -5.9124  -22.4906    0.2937 H         1 <0>         0.1265
     66 H28        -4.9925  -21.3427   -1.6797 H         1 <0>         0.1319
     67 H29        -3.6984  -19.2668   -1.4062 H         1 <0>         0.1313
     68 H30         1.9859   -1.6775   -1.9304 H         1 <0>         0.4215
@<TRIPOS>BOND
     1    1    2 1
     2    1   40 1
     3    1   41 1
     4    1   42 1
     5    2    7 1
     6    2    3 1
     7    2   68 1
     8    3    4 1
     9    3   43 1
    10    3   44 1
    11    4    5 1
    12    4   45 1
    13    4   46 1
    14    5    6 1
    15    5    8 1
    16    6    7 1
    17    6   47 1
    18    6   48 1
    19    7   49 1
    20    7   50 1
    21    8    9 1
    22    8   51 1
    23    8   52 1
    24    9   10 2
    25    9   11 am
    26   11   12 1
    27   11   53 1
    28   12   17 ar
    29   12   13 ar
    30   13   14 ar
    31   13   54 1
    32   14   15 ar
    33   14   55 1
    34   15   16 ar
    35   15   56 1
    36   16   20 1
    37   16   17 ar
    38   17   18 1
    39   18   19 1
    40   18   57 1
    41   18   58 1
    42   19   24 2
    43   19   20 1
    44   20   21 2
    45   21   22 1
    46   22   23 1
    47   22   24 1
    48   24   25 1
    49   25   29 2
    50   25   26 1
    51   26   27 2
    52   26   59 1
    53   27   28 1
    54   27   30 1
    55   28   29 1
    56   29   60 1
    57   30   31 3
    58   31   32 1
    59   32   33 1
    60   32   61 1
    61   32   62 1
    62   33   34 1
    63   34   39 ar
    64   34   35 ar
    65   35   36 ar
    66   35   63 1
    67   36   37 ar
    68   36   64 1
    69   37   38 ar
    70   37   65 1
    71   38   39 ar
    72   38   66 1
    73   39   67 1
@<TRIPOS>MOLECULE
CHEMBL245377__1
   68    73     0     0     0
SMALL
USER_CHARGES

@<TRIPOS>ATOM
      1 C1          2.4699    0.2432   -1.4351 C.3       1 <0>        -0.0459
      2 N1          1.8698   -1.0638   -1.1359 N.4       1 <0>        -0.3892
      3 C2          0.4386   -0.8922   -0.8540 C.3       1 <0>        -0.0015
      4 C3         -0.1908   -2.2559   -0.5607 C.3       1 <0>         0.0260
      5 N2          0.4839   -2.8655    0.5939 N.3       1 <0>        -0.5230
      6 C4          1.9224   -3.0208    0.3358 C.3       1 <0>         0.0179
      7 C5          2.5344   -1.6508    0.0351 C.3       1 <0>         0.0004
      8 C6         -0.1304   -4.1535    0.9429 C.3       1 <0>         0.0359
      9 C7          0.4162   -4.6291    2.2643 C.2       1 <0>         0.5155
     10 O1          1.2367   -3.9609    2.8570 O.2       1 <0>        -0.5051
     11 N3         -0.0067   -5.7970    2.7874 N.am      1 <0>        -0.6661
     12 C8          0.5680   -6.2844    3.9666 C.ar      1 <0>         0.1578
     13 C9          0.9777   -5.4006    4.9594 C.ar      1 <0>        -0.1037
     14 C10         1.5451   -5.8827    6.1237 C.ar      1 <0>        -0.0995
     15 C11         1.7089   -7.2400    6.3106 C.ar      1 <0>        -0.0992
     16 C12         1.3005   -8.1372    5.3202 C.ar      1 <0>        -0.0168
     17 C13         0.7246   -7.6464    4.1501 C.ar      1 <0>        -0.0990
     18 C14         0.3866   -8.8396    3.2904 C.3       1 <0>        -0.0003
     19 C15         0.8179  -10.0505    4.0818 C.2       1 <0>        -0.2252
     20 C16         1.3545   -9.6146    5.2554 C.2       1 <0>         0.1045
     21 N4          1.7438  -10.7196    5.9594 N.pl3     1 <0>        -0.4509
     22 N5          1.4499  -11.8500    5.1873 N.2       1 <0>        -0.2522
     23 H1          2.1520  -10.7205    6.8393 H         1 <0>         0.4437
     24 C17         0.8839  -11.4527    4.0669 C.2       1 <0>         0.1602
     25 C18         0.4171  -12.3346    2.9670 C.2       1 <0>        -0.0496
     26 C19         1.0900  -13.5092    2.6692 C.2       1 <0>        -0.1050
     27 C20         0.6244  -14.2922    1.6473 C.2       1 <0>        -0.0551
     28 S1         -0.7937  -13.3676    1.0816 S.3       1 <0>         0.1178
     29 C21        -0.6894  -12.0064    2.2313 C.2       1 <0>        -0.1486
     30 C22         1.1425  -15.5341    1.1576 C.1       1 <0>        -0.0719
     31 C23         1.5672  -16.5523    0.7561 C.1       1 <0>        -0.1264
     32 C24         2.0998  -17.8289    0.2527 C.3       1 <0>         0.1774
     33 O2          1.2895  -18.2889   -0.8308 O.3       1 <0>        -0.3104
     34 C25         1.6471  -19.4635   -1.4132 C.ar      1 <0>         0.1265
     35 C26         2.7517  -20.1620   -0.9477 C.ar      1 <0>        -0.2099
     36 C27         3.1128  -21.3560   -1.5411 C.ar      1 <0>        -0.0791
     37 C28         2.3747  -21.8549   -2.5985 C.ar      1 <0>        -0.1548
     38 C29         1.2737  -21.1605   -3.0646 C.ar      1 <0>        -0.0791
     39 C30         0.9048  -19.9691   -2.4706 C.ar      1 <0>        -0.1488
     40 H2          3.5317    0.1159   -1.6456 H         1 <0>         0.1244
     41 H3          1.9769    0.6790   -2.3040 H         1 <0>         0.1243
     42 H4          2.3462    0.9046   -0.5775 H         1 <0>         0.1235
     43 H5          0.3142   -0.2411    0.0113 H         1 <0>         0.1390
     44 H6         -0.0510   -0.4445   -1.7188 H         1 <0>         0.1378
     45 H7         -1.2498   -2.1271   -0.3368 H         1 <0>         0.1261
     46 H8         -0.0788   -2.9028   -1.4308 H         1 <0>         0.0635
     47 H9          2.4052   -3.4500    1.2137 H         1 <0>         0.1395
     48 H10         2.0693   -3.6803   -0.5195 H         1 <0>         0.0582
     49 H11         3.5986   -1.7656   -0.1706 H         1 <0>         0.1362
     50 H12         2.3993   -0.9958    0.8958 H         1 <0>         0.1398
     51 H13        -1.2109   -4.0319    1.0192 H         1 <0>         0.1226
     52 H14         0.0990   -4.8868    0.1697 H         1 <0>         0.0821
     53 H15        -0.7094   -6.2997    2.3465 H         1 <0>         0.4142
     54 H16         0.8527   -4.3369    4.8202 H         1 <0>         0.1467
     55 H17         1.8625   -5.1929    6.8917 H         1 <0>         0.1361
     56 H18         2.1534   -7.6092    7.2230 H         1 <0>         0.1282
     57 H19        -0.6865   -8.8758    3.1022 H         1 <0>         0.0965
     58 H20         0.9319   -8.7908    2.3479 H         1 <0>         0.0973
     59 H21         1.9645  -13.8007    3.2319 H         1 <0>         0.1446
     60 H22        -1.3335  -11.1443    2.3224 H         1 <0>         0.1942
     61 H23         3.1228  -17.6841   -0.0947 H         1 <0>         0.0948
     62 H24         2.0892  -18.5681    1.0536 H         1 <0>         0.0956
     63 H25         3.3289  -19.7724   -0.1223 H         1 <0>         0.1291
     64 H26         3.9726  -21.9001   -1.1791 H         1 <0>         0.1271
     65 H27         2.6588  -22.7884   -3.0614 H         1 <0>         0.1260
     66 H28         0.6989  -21.5521   -3.8909 H         1 <0>         0.1316
     67 H29         0.0421  -19.4292   -2.8322 H         1 <0>         0.1316
     68 H30         1.9848   -1.6761   -1.9297 H         1 <0>         0.4218
@<TRIPOS>BOND
     1    1    2 1
     2    1   40 1
     3    1   41 1
     4    1   42 1
     5    2    7 1
     6    2    3 1
     7    2   68 1
     8    3    4 1
     9    3   43 1
    10    3   44 1
    11    4    5 1
    12    4   45 1
    13    4   46 1
    14    5    6 1
    15    5    8 1
    16    6    7 1
    17    6   47 1
    18    6   48 1
    19    7   49 1
    20    7   50 1
    21    8    9 1
    22    8   51 1
    23    8   52 1
    24    9   10 2
    25    9   11 am
    26   11   12 1
    27   11   53 1
    28   12   17 ar
    29   12   13 ar
    30   13   14 ar
    31   13   54 1
    32   14   15 ar
    33   14   55 1
    34   15   16 ar
    35   15   56 1
    36   16   17 ar
    37   16   20 1
    38   17   18 1
    39   18   57 1
    40   18   58 1
    41   18   19 1
    42   19   24 1
    43   19   20 2
    44   20   21 1
    45   21   22 1
    46   21   23 1
    47   22   24 2
    48   24   25 1
    49   25   29 2
    50   25   26 1
    51   26   27 2
    52   26   59 1
    53   27   28 1
    54   27   30 1
    55   28   29 1
    56   29   60 1
    57   30   31 3
    58   31   32 1
    59   32   33 1
    60   32   61 1
    61   32   62 1
    62   33   34 1
    63   34   39 ar
    64   34   35 ar
    65   35   36 ar
    66   35   63 1
    67   36   37 ar
    68   36   64 1
    69   37   38 ar
    70   37   65 1
    71   38   39 ar
    72   38   66 1
    73   39   67 1
@<TRIPOS>MOLECULE
CHEMBL191070
   82    85     0     0     0
SMALL
USER_CHARGES

@<TRIPOS>ATOM
      1 C1         -0.0187    1.5258    0.0104 C.3       1 <0>        -0.1656
      2 C2          0.0021   -0.0041    0.0020 C.3       1 <0>         0.1879
      3 C3          0.7421   -0.5109    1.2415 C.3       1 <0>        -0.1656
      4 C4         -1.4333   -0.5336    0.0129 C.3       1 <0>        -0.1558
      5 N1          0.6878   -0.4765   -1.2033 N.am      1 <0>        -0.7366
      6 C5          1.9715   -0.1323   -1.4270 C.2       1 <0>         0.6937
      7 O1          2.5604    0.5703   -0.6286 O.2       1 <0>        -0.5136
      8 N2          2.6023   -0.5669   -2.5359 N.am      1 <0>        -0.6664
      9 C6          3.9247   -0.2123   -2.7663 C.ar      1 <0>         0.4499
     10 C7          4.5693   -0.6712   -3.9356 C.ar      1 <0>        -0.1615
     11 C8          5.8881   -0.3212   -4.1717 C.ar      1 <0>         0.0292
     12 C9          6.5368    0.4880   -3.2221 C.ar      1 <0>        -0.2402
     13 C10         7.8708    0.8895   -3.3824 C.ar      1 <0>         0.2197
     14 N3          8.4455    1.6459   -2.4759 N.ar      1 <0>        -0.5395
     15 C11         7.8088    2.0618   -1.3834 C.ar      1 <0>         0.4095
     16 C12         6.4944    1.7182   -1.1375 C.ar      1 <0>        -0.2408
     17 C13         5.8226    0.9111   -2.0693 C.ar      1 <0>         0.2386
     18 N4          4.5491    0.5491   -1.8926 N.ar      1 <0>        -0.4810
     19 N5          8.4837    2.8609   -0.4679 N.pl3     1 <0>        -0.7210
     20 C14         7.7998    3.3283    0.7404 C.3       1 <0>         0.1251
     21 C15         8.7592    4.1828    1.5712 C.3       1 <0>        -0.1287
     22 C16         8.0449    4.6711    2.8331 C.3       1 <0>        -0.1153
     23 C17         9.0043    5.5256    3.6639 C.3       1 <0>        -0.1150
     24 C18         8.2901    6.0138    4.9258 C.3       1 <0>         0.0540
     25 N6          9.2112    6.8342    5.7235 N.3       1 <0>        -0.5384
     26 C19        10.3193    6.0230    6.2485 C.3       1 <0>         0.0142
     27 C20        11.2843    6.9261    7.0212 C.3       1 <0>         0.0624
     28 O2         10.5691    7.6021    8.0590 O.3       1 <0>        -0.3858
     29 C21         9.4833    8.4020    7.5831 C.3       1 <0>         0.0628
     30 C22         8.5000    7.5139    6.8160 C.3       1 <0>         0.0166
     31 C23         3.8387   -1.5231   -4.9046 C.ar      1 <0>         0.0422
     32 C24         3.1397   -2.6438   -4.4607 C.ar      1 <0>        -0.1990
     33 C25         2.4582   -3.4378   -5.3688 C.ar      1 <0>         0.1767
     34 C26         2.4715   -3.1183   -6.7187 C.ar      1 <0>        -0.2977
     35 C27         3.1664   -2.0032   -7.1640 C.ar      1 <0>         0.1765
     36 C28         3.8449   -1.2016   -6.2604 C.ar      1 <0>        -0.1741
     37 O3          3.1769   -1.6937   -8.4872 O.3       1 <0>        -0.3104
     38 C29         2.4514   -2.5601   -9.3619 C.3       1 <0>         0.0252
     39 O4          1.7762   -4.5310   -4.9368 O.3       1 <0>        -0.3112
     40 C30         1.0960   -5.3046   -5.9272 C.3       1 <0>         0.0251
     41 H1          1.0039    1.9031    0.0027 H         1 <0>         0.0812
     42 H2         -0.5459    1.8868   -0.8726 H         1 <0>         0.0525
     43 H3         -0.5289    1.8773    0.9072 H         1 <0>         0.0632
     44 H4          0.2319   -0.1594    2.1383 H         1 <0>         0.0631
     45 H5          0.7568   -1.6008    1.2356 H         1 <0>         0.0528
     46 H6          1.7647   -0.1336    1.2338 H         1 <0>         0.0812
     47 H7         -1.9605   -0.1726   -0.8702 H         1 <0>         0.0620
     48 H8         -1.4185   -1.6235    0.0069 H         1 <0>         0.0624
     49 H9         -1.9435   -0.1821    0.9097 H         1 <0>         0.0761
     50 H10         0.2179   -1.0371   -1.8404 H         1 <0>         0.3942
     51 H11         2.1325   -1.1275   -3.1729 H         1 <0>         0.4148
     52 H12         6.4032   -0.6599   -5.0584 H         1 <0>         0.1507
     53 H13         8.4269    0.5757   -4.2534 H         1 <0>         0.1686
     54 H14         5.9925    2.0642   -0.2459 H         1 <0>         0.1415
     55 H15         9.4075    3.1089   -0.6290 H         1 <0>         0.4056
     56 H16         6.9323    3.9254    0.4590 H         1 <0>         0.0668
     57 H17         7.4748    2.4704    1.3290 H         1 <0>         0.0662
     58 H18         9.6266    3.5858    1.8527 H         1 <0>         0.0703
     59 H19         9.0841    5.0408    0.9827 H         1 <0>         0.0719
     60 H20         7.1775    5.2681    2.5517 H         1 <0>         0.0683
     61 H21         7.7200    3.8131    3.4217 H         1 <0>         0.0657
     62 H22         9.8718    4.9285    3.9454 H         1 <0>         0.0631
     63 H23         9.3293    6.3835    3.0754 H         1 <0>         0.0727
     64 H24         7.4226    6.6108    4.6444 H         1 <0>         0.0770
     65 H25         7.9651    5.1558    5.5144 H         1 <0>         0.0358
     66 H26         9.9250    5.2565    6.9156 H         1 <0>         0.0428
     67 H27        10.8476    5.5495    5.4210 H         1 <0>         0.0889
     68 H28        12.0769    6.3204    7.4604 H         1 <0>         0.0983
     69 H29        11.7195    7.6593    6.3421 H         1 <0>         0.0602
     70 H30         8.9734    8.8636    8.4286 H         1 <0>         0.0988
     71 H31         9.8661    9.1780    6.9203 H         1 <0>         0.0604
     72 H32         7.7004    8.1286    6.4028 H         1 <0>         0.0869
     73 H33         8.0766    6.7711    7.4922 H         1 <0>         0.0431
     74 H34         3.1296   -2.8935   -3.4101 H         1 <0>         0.1348
     75 H35         1.9400   -3.7392   -7.4246 H         1 <0>         0.1373
     76 H36         4.3820   -0.3311   -6.6071 H         1 <0>         0.1380
     77 H37         2.8585   -3.5690   -9.2938 H         1 <0>         0.0570
     78 H38         1.4007   -2.5720   -9.0723 H         1 <0>         0.0566
     79 H39         2.5417   -2.2003  -10.3868 H         1 <0>         0.1045
     80 H40         0.3590   -4.6805   -6.4327 H         1 <0>         0.0570
     81 H41         1.8166   -5.6777   -6.6549 H         1 <0>         0.0571
     82 H42         0.5935   -6.1456   -5.4494 H         1 <0>         0.1043
@<TRIPOS>BOND
     1    1    2 1
     2    1   41 1
     3    1   42 1
     4    1   43 1
     5    2    3 1
     6    2    4 1
     7    2    5 1
     8    3   44 1
     9    3   45 1
    10    3   46 1
    11    4   47 1
    12    4   48 1
    13    4   49 1
    14    5    6 am
    15    5   50 1
    16    6    7 2
    17    6    8 am
    18    8    9 1
    19    8   51 1
    20    9   18 ar
    21    9   10 ar
    22   10   11 ar
    23   10   31 1
    24   11   12 ar
    25   11   52 1
    26   12   17 ar
    27   12   13 ar
    28   13   14 ar
    29   13   53 1
    30   14   15 ar
    31   15   16 ar
    32   15   19 1
    33   16   17 ar
    34   16   54 1
    35   17   18 ar
    36   19   20 1
    37   19   55 1
    38   20   21 1
    39   20   56 1
    40   20   57 1
    41   21   22 1
    42   21   58 1
    43   21   59 1
    44   22   23 1
    45   22   60 1
    46   22   61 1
    47   23   24 1
    48   23   62 1
    49   23   63 1
    50   24   25 1
    51   24   64 1
    52   24   65 1
    53   25   30 1
    54   25   26 1
    55   26   27 1
    56   26   66 1
    57   26   67 1
    58   27   28 1
    59   27   68 1
    60   27   69 1
    61   28   29 1
    62   29   30 1
    63   29   70 1
    64   29   71 1
    65   30   72 1
    66   30   73 1
    67   31   36 ar
    68   31   32 ar
    69   32   33 ar
    70   32   74 1
    71   33   34 ar
    72   33   39 1
    73   34   35 ar
    74   34   75 1
    75   35   36 ar
    76   35   37 1
    77   36   76 1
    78   37   38 1
    79   38   77 1
    80   38   78 1
    81   38   79 1
    82   39   40 1
    83   40   80 1
    84   40   81 1
    85   40   82 1
@<TRIPOS>MOLECULE
CHEMBL191070__1
   83    86     0     0     0
SMALL
USER_CHARGES

@<TRIPOS>ATOM
      1 C1         -0.0187    1.5258    0.0104 C.3       1 <0>        -0.1650
      2 C2          0.0021   -0.0041    0.0020 C.3       1 <0>         0.1877
      3 C3          0.7421   -0.5109    1.2415 C.3       1 <0>        -0.1649
      4 C4         -1.4333   -0.5336    0.0129 C.3       1 <0>        -0.1571
      5 N1          0.6878   -0.4765   -1.2033 N.am      1 <0>        -0.7357
      6 C5          1.9715   -0.1323   -1.4270 C.2       1 <0>         0.6958
      7 O1          2.5604    0.5703   -0.6286 O.2       1 <0>        -0.5179
      8 N2          2.6023   -0.5669   -2.5359 N.am      1 <0>        -0.6657
      9 C6          3.9247   -0.2123   -2.7663 C.ar      1 <0>         0.4529
     10 C7          4.5693   -0.6712   -3.9356 C.ar      1 <0>        -0.1539
     11 C8          5.8881   -0.3212   -4.1717 C.ar      1 <0>         0.0272
     12 C9          6.5368    0.4880   -3.2221 C.ar      1 <0>        -0.2368
     13 C10         7.8708    0.8895   -3.3824 C.ar      1 <0>         0.2224
     14 N3          8.4455    1.6459   -2.4759 N.ar      1 <0>        -0.5409
     15 C11         7.8088    2.0618   -1.3834 C.ar      1 <0>         0.4050
     16 C12         6.4944    1.7182   -1.1375 C.ar      1 <0>        -0.2386
     17 C13         5.8226    0.9111   -2.0693 C.ar      1 <0>         0.2372
     18 N4          4.5491    0.5491   -1.8926 N.ar      1 <0>        -0.4829
     19 N5          8.4837    2.8609   -0.4679 N.pl3     1 <0>        -0.7266
     20 C14         7.7998    3.3283    0.7404 C.3       1 <0>         0.1269
     21 C15         8.7592    4.1828    1.5712 C.3       1 <0>        -0.1313
     22 C16         8.0449    4.6711    2.8331 C.3       1 <0>        -0.1145
     23 C17         9.0043    5.5256    3.6639 C.3       1 <0>        -0.1482
     24 C18         8.2901    6.0138    4.9258 C.3       1 <0>        -0.0105
     25 N6          9.2112    6.8342    5.7235 N.4       1 <0>        -0.3859
     26 C19        10.3203    5.9988    6.2044 C.3       1 <0>        -0.0481
     27 C20        11.2787    6.8559    7.0350 C.3       1 <0>         0.0360
     28 O2         10.5602    7.4504    8.1195 O.3       1 <0>        -0.3567
     29 C21         9.4542    8.2556    7.7022 C.3       1 <0>         0.0355
     30 C22         8.4924    7.4011    6.8728 C.3       1 <0>        -0.0437
     31 C23         3.8387   -1.5231   -4.9046 C.ar      1 <0>         0.0367
     32 C24         3.1397   -2.6438   -4.4607 C.ar      1 <0>        -0.1996
     33 C25         2.4582   -3.4378   -5.3688 C.ar      1 <0>         0.1781
     34 C26         2.4715   -3.1183   -6.7187 C.ar      1 <0>        -0.2960
     35 C27         3.1664   -2.0032   -7.1640 C.ar      1 <0>         0.1781
     36 C28         3.8449   -1.2016   -6.2604 C.ar      1 <0>        -0.1738
     37 O3          3.1769   -1.6937   -8.4872 O.3       1 <0>        -0.3100
     38 C29         2.4514   -2.5601   -9.3619 C.3       1 <0>         0.0245
     39 O4          1.7762   -4.5310   -4.9368 O.3       1 <0>        -0.3110
     40 C30         1.0960   -5.3046   -5.9272 C.3       1 <0>         0.0243
     41 H1          1.0039    1.9031    0.0027 H         1 <0>         0.0797
     42 H2         -0.5459    1.8868   -0.8726 H         1 <0>         0.0533
     43 H3         -0.5289    1.8773    0.9072 H         1 <0>         0.0630
     44 H4          0.2319   -0.1594    2.1383 H         1 <0>         0.0629
     45 H5          0.7568   -1.6008    1.2356 H         1 <0>         0.0537
     46 H6          1.7647   -0.1336    1.2338 H         1 <0>         0.0797
     47 H7         -1.9605   -0.1726   -0.8702 H         1 <0>         0.0631
     48 H8         -1.4185   -1.6235    0.0069 H         1 <0>         0.0635
     49 H9         -1.9435   -0.1821    0.9097 H         1 <0>         0.0766
     50 H10         0.2179   -1.0371   -1.8404 H         1 <0>         0.3958
     51 H11         2.1325   -1.1275   -3.1729 H         1 <0>         0.4166
     52 H12         6.4032   -0.6599   -5.0584 H         1 <0>         0.1528
     53 H13         8.4269    0.5757   -4.2534 H         1 <0>         0.1705
     54 H14         5.9925    2.0642   -0.2459 H         1 <0>         0.1392
     55 H15         9.4075    3.1089   -0.6290 H         1 <0>         0.4051
     56 H16         6.9323    3.9254    0.4590 H         1 <0>         0.0670
     57 H17         7.4748    2.4704    1.3290 H         1 <0>         0.0669
     58 H18         9.6266    3.5858    1.8527 H         1 <0>         0.0749
     59 H19         9.0841    5.0408    0.9827 H         1 <0>         0.0752
     60 H20         7.1775    5.2681    2.5517 H         1 <0>         0.0798
     61 H21         7.7200    3.8131    3.4217 H         1 <0>         0.0794
     62 H22         9.8718    4.9285    3.9454 H         1 <0>         0.0879
     63 H23         9.3293    6.3835    3.0754 H         1 <0>         0.0884
     64 H24         7.4226    6.6108    4.6444 H         1 <0>         0.1339
     65 H25         7.9651    5.1558    5.5144 H         1 <0>         0.1318
     66 H26         9.9262    5.1916    6.8219 H         1 <0>         0.1393
     67 H27        10.8543    5.5778    5.3525 H         1 <0>         0.1432
     68 H28        12.0791    6.2294    7.4286 H         1 <0>         0.1418
     69 H29        11.7037    7.6390    6.4072 H         1 <0>         0.0810
     70 H30         8.9342    8.6422    8.5787 H         1 <0>         0.1422
     71 H31         9.8168    9.0867    7.0973 H         1 <0>         0.0811
     72 H32         7.6695    8.0212    6.5172 H         1 <0>         0.1429
     73 H33         8.0991    6.5934    7.4901 H         1 <0>         0.1390
     74 H34         3.1296   -2.8935   -3.4101 H         1 <0>         0.1344
     75 H35         1.9400   -3.7392   -7.4246 H         1 <0>         0.1386
     76 H36         4.3820   -0.3311   -6.6071 H         1 <0>         0.1378
     77 H37         2.8585   -3.5690   -9.2938 H         1 <0>         0.0579
     78 H38         1.4007   -2.5720   -9.0723 H         1 <0>         0.0574
     79 H39         2.5417   -2.2003  -10.3868 H         1 <0>         0.1058
     80 H40         1.8166   -5.6777   -6.6549 H         1 <0>         0.0580
     81 H41         0.5935   -6.1456   -5.4494 H         1 <0>         0.1055
     82 H42         0.3590   -4.6805   -6.4327 H         1 <0>         0.0578
     83 H43         9.5761    7.5820    5.1527 H         1 <0>         0.4228
@<TRIPOS>BOND
     1    1    2 1
     2    1   41 1
     3    1   42 1
     4    1   43 1
     5    2    3 1
     6    2    4 1
     7    2    5 1
     8    3   44 1
     9    3   45 1
    10    3   46 1
    11    4   47 1
    12    4   48 1
    13    4   49 1
    14    5    6 am
    15    5   50 1
    16    6    7 2
    17    6    8 am
    18    8    9 1
    19    8   51 1
    20    9   18 ar
    21    9   10 ar
    22   10   11 ar
    23   10   31 1
    24   11   12 ar
    25   11   52 1
    26   12   17 ar
    27   12   13 ar
    28   13   14 ar
    29   13   53 1
    30   14   15 ar
    31   15   16 ar
    32   15   19 1
    33   16   17 ar
    34   16   54 1
    35   17   18 ar
    36   19   20 1
    37   19   55 1
    38   20   21 1
    39   20   56 1
    40   20   57 1
    41   21   22 1
    42   21   58 1
    43   21   59 1
    44   22   23 1
    45   22   60 1
    46   22   61 1
    47   23   24 1
    48   23   62 1
    49   23   63 1
    50   24   25 1
    51   24   64 1
    52   24   65 1
    53   25   30 1
    54   25   26 1
    55   25   83 1
    56   26   27 1
    57   26   66 1
    58   26   67 1
    59   27   28 1
    60   27   68 1
    61   27   69 1
    62   28   29 1
    63   29   30 1
    64   29   70 1
    65   29   71 1
    66   30   72 1
    67   30   73 1
    68   31   36 ar
    69   31   32 ar
    70   32   33 ar
    71   32   74 1
    72   33   34 ar
    73   33   39 1
    74   34   35 ar
    75   34   75 1
    76   35   36 ar
    77   35   37 1
    78   36   76 1
    79   37   38 1
    80   38   77 1
    81   38   78 1
    82   38   79 1
    83   39   40 1
    84   40   80 1
    85   40   81 1
    86   40   82 1
@<TRIPOS>MOLECULE
CHEMBL178607
   69    72     0     0     0
SMALL
USER_CHARGES

@<TRIPOS>ATOM
      1 C1          0.2892    1.4902   -0.0006 C.3       1 <0>        -0.1096
      2 C2          0.1646   -0.0116   -0.0026 C.ar      1 <0>        -0.1231
      3 C3         -0.2109   -0.6714   -1.1576 C.ar      1 <0>        -0.0860
      4 C4         -0.3263   -2.0477   -1.1635 C.ar      1 <0>        -0.1541
      5 C5         -0.0643   -2.7727   -0.0072 C.ar      1 <0>         0.1464
      6 C6          0.3134   -2.1117    1.1533 C.ar      1 <0>        -0.1749
      7 C7          0.4327   -0.7307    1.1536 C.ar      1 <0>         0.1238
      8 O1          0.8068   -0.0808    2.2870 O.3       1 <0>        -0.4929
      9 N1         -0.1813   -4.1654   -0.0128 N.pl3     1 <0>        -0.6145
     10 C8         -0.2438   -4.8487   -1.2123 C.2       1 <0>         0.5248
     11 C9         -0.2262   -6.2621   -1.2322 C.2       1 <0>        -0.0826
     12 C10        -0.1551   -7.2302   -0.2491 C.2       1 <0>        -0.0998
     13 C11        -0.1779   -8.4712   -0.8956 C.2       1 <0>         0.0890
     14 C12        -0.2610   -8.2415   -2.2376 C.2       1 <0>         0.0584
     15 N2         -0.2910   -6.9057   -2.4533 N.pl3     1 <0>        -0.2297
     16 N3         -0.3699   -6.1237   -3.6142 N.2       1 <0>        -0.3417
     17 C13        -0.3809   -4.8219   -3.5255 C.2       1 <0>         0.3270
     18 N4         -0.3262   -4.1881   -2.3556 N.2       1 <0>        -0.6003
     19 N5         -0.1242   -9.7308   -0.2726 N.am      1 <0>        -0.6109
     20 C14        -0.1544  -10.8532   -1.0182 C.2       1 <0>         0.6523
     21 O2         -0.2281  -10.7767   -2.2288 O.2       1 <0>        -0.5489
     22 O3         -0.1030  -12.0594   -0.4217 O.3       1 <0>        -0.3604
     23 C15        -0.1393  -13.2064   -1.2732 C.3       1 <0>         0.0884
     24 C16        -0.0717  -14.4759   -0.4220 C.3       1 <0>        -0.1517
     25 C17        -0.1106  -15.7040   -1.3337 C.3       1 <0>        -0.0061
     26 N6         -0.0457  -16.9229   -0.5164 N.4       1 <0>        -0.3812
     27 C18         1.2496  -16.9805    0.1716 C.3       1 <0>        -0.0140
     28 C19         1.2911  -18.2060    1.0870 C.3       1 <0>        -0.1457
     29 C20         1.1015  -19.4714    0.2457 C.3       1 <0>        -0.1402
     30 C21        -0.2177  -19.3672   -0.5251 C.3       1 <0>        -0.1464
     31 C22        -0.2033  -18.0987   -1.3808 C.3       1 <0>        -0.0067
     32 C23        -0.0687   -6.9946    1.2369 C.3       1 <0>        -0.0286
     33 C24        -1.2656   -7.6510    1.9279 C.3       1 <0>        -0.1471
     34 C25         1.2278   -7.6033    1.7752 C.3       1 <0>        -0.1466
     35 H1          1.3049    1.7709   -0.2793 H         1 <0>         0.0722
     36 H2         -0.4144    1.9141   -0.7171 H         1 <0>         0.0670
     37 H3          0.0672    1.8719    0.9960 H         1 <0>         0.0669
     38 H4         -0.4150   -0.1096   -2.0572 H         1 <0>         0.1321
     39 H5         -0.6206   -2.5608   -2.0672 H         1 <0>         0.1963
     40 H6          0.5177   -2.6726    2.0534 H         1 <0>         0.1292
     41 H7          0.0678    0.1770    2.8548 H         1 <0>         0.3904
     42 H8         -0.2188   -4.6523    0.8253 H         1 <0>         0.4211
     43 H9         -0.2974   -9.0020   -3.0036 H         1 <0>         0.2057
     44 H10        -0.4422   -4.2382   -4.4321 H         1 <0>         0.2256
     45 H11        -0.0654   -9.7919    0.6936 H         1 <0>         0.4211
     46 H12        -1.0655  -13.2031   -1.8479 H         1 <0>         0.0828
     47 H13         0.7111  -13.1801   -1.9546 H         1 <0>         0.0825
     48 H14         0.8545  -14.4792    0.1527 H         1 <0>         0.1001
     49 H15        -0.9221  -14.5022    0.2594 H         1 <0>         0.1005
     50 H16        -1.0368  -15.7007   -1.9084 H         1 <0>         0.1371
     51 H17         0.7398  -15.6777   -2.0151 H         1 <0>         0.1352
     52 H18         2.0493  -17.0510   -0.5656 H         1 <0>         0.1298
     53 H19         1.3844  -16.0777    0.7674 H         1 <0>         0.1319
     54 H20         2.2542  -18.2479    1.5956 H         1 <0>         0.1124
     55 H21         0.4919  -18.1363    1.8249 H         1 <0>         0.0879
     56 H22         1.9282  -19.5685   -0.4581 H         1 <0>         0.0821
     57 H23         1.0737  -20.3431    0.8996 H         1 <0>         0.0946
     58 H24        -0.3330  -20.2392   -1.1688 H         1 <0>         0.1130
     59 H25        -1.0482  -19.3217    0.1794 H         1 <0>         0.0880
     60 H26        -1.1410  -18.0215   -1.9310 H         1 <0>         0.1313
     61 H27         0.6274  -18.1454   -2.0849 H         1 <0>         0.1295
     62 H28        -0.0770   -5.9230    1.4360 H         1 <0>         0.0708
     63 H29        -1.2573   -8.7226    1.7288 H         1 <0>         0.0537
     64 H30        -1.2030   -7.4806    3.0026 H         1 <0>         0.0699
     65 H31        -2.1892   -7.2174    1.5444 H         1 <0>         0.0630
     66 H32         2.0805   -7.1356    1.2829 H         1 <0>         0.0631
     67 H33         1.2903   -7.4329    2.8499 H         1 <0>         0.0697
     68 H34         1.2361   -8.6749    1.5761 H         1 <0>         0.0536
     69 H35        -0.7873  -16.9078    0.1677 H         1 <0>         0.4236
@<TRIPOS>BOND
     1    1    2 1
     2    1   35 1
     3    1   36 1
     4    1   37 1
     5    2    7 ar
     6    2    3 ar
     7    3    4 ar
     8    3   38 1
     9    4    5 ar
    10    4   39 1
    11    5    6 ar
    12    5    9 1
    13    6    7 ar
    14    6   40 1
    15    7    8 1
    16    8   41 1
    17    9   10 1
    18    9   42 1
    19   10   18 2
    20   10   11 1
    21   11   15 1
    22   11   12 2
    23   12   13 1
    24   12   32 1
    25   13   14 2
    26   13   19 1
    27   14   15 1
    28   14   43 1
    29   15   16 1
    30   16   17 2
    31   17   18 1
    32   17   44 1
    33   19   20 am
    34   19   45 1
    35   20   21 2
    36   20   22 1
    37   22   23 1
    38   23   24 1
    39   23   46 1
    40   23   47 1
    41   24   25 1
    42   24   48 1
    43   24   49 1
    44   25   26 1
    45   25   50 1
    46   25   51 1
    47   26   31 1
    48   26   27 1
    49   26   69 1
    50   27   28 1
    51   27   52 1
    52   27   53 1
    53   28   29 1
    54   28   54 1
    55   28   55 1
    56   29   30 1
    57   29   56 1
    58   29   57 1
    59   30   31 1
    60   30   58 1
    61   30   59 1
    62   31   60 1
    63   31   61 1
    64   32   33 1
    65   32   34 1
    66   32   62 1
    67   33   63 1
    68   33   64 1
    69   33   65 1
    70   34   66 1
    71   34   67 1
    72   34   68 1
@<TRIPOS>MOLECULE
CHEMBL425672
   63    67     0     0     0
SMALL
USER_CHARGES

@<TRIPOS>ATOM
      1 C1         -1.3718   -4.9790   -7.0987 C.3       1 <0>         0.0846
      2 N1         -1.7761   -4.2799   -5.8764 N.am      1 <0>        -0.7126
      3 C2         -2.0615   -4.9817   -4.7617 C.2       1 <0>         0.5702
      4 O1         -1.9835   -6.1943   -4.7706 O.2       1 <0>        -0.5310
      5 C3         -2.4705   -4.2746   -3.5254 C.ar      1 <0>         0.1138
      6 C4         -2.7581   -5.0048   -2.3770 C.ar      1 <0>        -0.1887
      7 C5         -3.1410   -4.3250   -1.2235 C.ar      1 <0>         0.1568
      8 C6         -3.2198   -2.9356   -1.2697 C.ar      1 <0>        -0.1717
      9 C7         -2.9181   -2.2798   -2.4494 C.ar      1 <0>         0.1371
     10 N2         -2.5537   -2.9492   -3.5225 N.ar      1 <0>        -0.4787
     11 O2         -3.4306   -5.0003   -0.0822 O.3       1 <0>        -0.2392
     12 C8         -3.4302   -6.3591   -0.1270 C.ar      1 <0>         0.0872
     13 C9         -2.2236   -7.0512   -0.1468 C.ar      1 <0>        -0.1124
     14 C10        -2.2102   -8.4301   -0.1922 C.ar      1 <0>        -0.0593
     15 C11        -3.4036   -9.1335   -0.2184 C.ar      1 <0>         0.0048
     16 C12        -4.6240   -8.4420   -0.1988 C.ar      1 <0>         0.0700
     17 C13        -4.6288   -7.0475   -0.1471 C.ar      1 <0>        -0.0683
     18 N3         -5.6064   -9.3837   -0.2328 N.2       1 <0>        -0.5089
     19 C14        -5.0513  -10.5682   -0.2707 C.2       1 <0>         0.4948
     20 O3         -3.7119  -10.4508   -0.2631 O.3       1 <0>        -0.2160
     21 N4         -5.7391  -11.7614   -0.3115 N.pl3     1 <0>        -0.6091
     22 C15        -5.0457  -12.9720   -0.2117 C.ar      1 <0>         0.2078
     23 C16        -3.8269  -13.0226    0.4533 C.ar      1 <0>        -0.1682
     24 C17        -3.1417  -14.2180    0.5516 C.ar      1 <0>        -0.0331
     25 C18        -3.6666  -15.3669   -0.0114 C.ar      1 <0>        -0.0868
     26 C19        -4.8846  -15.3219   -0.6768 C.ar      1 <0>         0.1677
     27 C20        -5.5772  -14.1252   -0.7721 C.ar      1 <0>        -0.2296
     28 O4         -5.3994  -16.4516   -1.2301 O.3       1 <0>        -0.2982
     29 C21        -6.6563  -16.3316   -1.8994 C.3       1 <0>         0.0578
     30 C22        -7.0715  -17.6960   -2.4531 C.3       1 <0>        -0.0994
     31 C23        -6.0840  -18.1296   -3.5404 C.3       1 <0>        -0.1450
     32 C24        -6.5493  -19.4561   -4.1447 C.3       1 <0>        -0.0072
     33 N5         -7.8839  -19.2889   -4.7324 N.4       1 <0>        -0.5067
     34 C25        -8.8503  -18.9431   -3.6831 C.3       1 <0>        -0.0040
     35 C26        -8.4736  -17.5968   -3.0610 C.3       1 <0>        -0.1435
     36 Cl1        -2.8017  -16.8669    0.1134 Cl        1 <0>        -0.0484
     37 H1         -1.1839   -4.2514   -7.8882 H         1 <0>         0.0814
     38 H2         -0.4632   -5.5499   -6.9071 H         1 <0>         0.0634
     39 H3         -2.1673   -5.6559   -7.4102 H         1 <0>         0.0622
     40 H4         -1.8384   -3.3120   -5.8694 H         1 <0>         0.4150
     41 H5         -2.6859   -6.0824   -2.3800 H         1 <0>         0.1534
     42 H6         -3.5138   -2.3761   -0.3939 H         1 <0>         0.1547
     43 H7         -2.9784   -1.2022   -2.4895 H         1 <0>         0.1769
     44 H8         -1.2917   -6.5058   -0.1267 H         1 <0>         0.1525
     45 H9         -1.2698   -8.9609   -0.2076 H         1 <0>         0.1487
     46 H10        -5.5645   -6.5085   -0.1273 H         1 <0>         0.1496
     47 H11        -6.7041  -11.7618   -0.4095 H         1 <0>         0.4441
     48 H12        -3.4148  -12.1266    0.8935 H         1 <0>         0.1453
     49 H13        -2.1943  -14.2553    1.0686 H         1 <0>         0.1516
     50 H14        -6.5266  -14.0891   -1.2857 H         1 <0>         0.1426
     51 H15        -7.4106  -15.9803   -1.1954 H         1 <0>         0.0762
     52 H16        -6.5647  -15.6192   -2.7193 H         1 <0>         0.0716
     53 H17        -7.0745  -18.4306   -1.6479 H         1 <0>         0.1040
     54 H18        -6.0437  -17.3687   -4.3198 H         1 <0>         0.0897
     55 H19        -5.0937  -18.2563   -3.1030 H         1 <0>         0.1214
     56 H20        -5.8483  -19.7678   -4.9191 H         1 <0>         0.1356
     57 H21        -6.5889  -20.2163   -3.3645 H         1 <0>         0.1324
     58 H22        -7.8574  -18.5511   -5.4202 H         1 <0>         0.4281
     59 H23        -9.8482  -18.8761   -4.1166 H         1 <0>         0.1368
     60 H24        -8.8409  -19.7142   -2.9127 H         1 <0>         0.1329
     61 H25        -9.1914  -17.3428   -2.2810 H         1 <0>         0.1168
     62 H26        -8.4830  -16.8249   -3.8305 H         1 <0>         0.0930
     63 H27        -8.1650  -20.1501   -5.1766 H         1 <0>         0.4333
@<TRIPOS>BOND
     1    1    2 1
     2    1   37 1
     3    1   38 1
     4    1   39 1
     5    2    3 am
     6    2   40 1
     7    3    4 2
     8    3    5 1
     9    5   10 ar
    10    5    6 ar
    11    6    7 ar
    12    6   41 1
    13    7    8 ar
    14    7   11 1
    15    8    9 ar
    16    8   42 1
    17    9   10 ar
    18    9   43 1
    19   11   12 1
    20   12   17 ar
    21   12   13 ar
    22   13   14 ar
    23   13   44 1
    24   14   15 ar
    25   14   45 1
    26   15   20 1
    27   15   16 ar
    28   16   17 ar
    29   16   18 1
    30   17   46 1
    31   18   19 2
    32   19   20 1
    33   19   21 1
    34   21   22 1
    35   21   47 1
    36   22   27 ar
    37   22   23 ar
    38   23   24 ar
    39   23   48 1
    40   24   25 ar
    41   24   49 1
    42   25   26 ar
    43   25   36 1
    44   26   27 ar
    45   26   28 1
    46   27   50 1
    47   28   29 1
    48   29   30 1
    49   29   51 1
    50   29   52 1
    51   30   35 1
    52   30   31 1
    53   30   53 1
    54   31   32 1
    55   31   54 1
    56   31   55 1
    57   32   33 1
    58   32   56 1
    59   32   57 1
    60   33   34 1
    61   33   58 1
    62   33   63 1
    63   34   35 1
    64   34   59 1
    65   34   60 1
    66   35   61 1
    67   35   62 1
@<TRIPOS>MOLECULE
CHEMBL231570
   59    63     0     0     0
SMALL
USER_CHARGES

@<TRIPOS>ATOM
      1 C1          6.9110   -4.9170    2.2643 C.3       1 <0>         0.0846
      2 N1          6.0440   -4.2125    1.3166 N.am      1 <0>        -0.7135
      3 C2          5.2327   -4.9109    0.4978 C.2       1 <0>         0.5691
      4 O1          5.2204   -6.1250    0.5457 O.2       1 <0>        -0.5277
      5 C3          4.3558   -4.1982   -0.4608 C.ar      1 <0>         0.1140
      6 C4          3.5169   -4.9252   -1.2990 C.ar      1 <0>        -0.1876
      7 C5          2.6990   -4.2402   -2.1941 C.ar      1 <0>         0.1580
      8 C6          2.7567   -2.8491   -2.2116 C.ar      1 <0>        -0.1737
      9 C7          3.6169   -2.1968   -1.3470 C.ar      1 <0>         0.1355
     10 N2          4.3741   -2.8712   -0.5080 N.ar      1 <0>        -0.4800
     11 O2          1.8664   -4.9122   -3.0294 O.3       1 <0>        -0.2394
     12 C8          1.9263   -6.2704   -3.0336 C.ar      1 <0>         0.0842
     13 C9          1.3507   -6.9924   -1.9931 C.ar      1 <0>        -0.1176
     14 C10         1.4054   -8.3710   -1.9860 C.ar      1 <0>        -0.0580
     15 C11         2.0361   -9.0442   -3.0197 C.ar      1 <0>         0.0022
     16 C12         2.6183   -8.3225   -4.0724 C.ar      1 <0>         0.0747
     17 C13         2.5541   -6.9285   -4.0746 C.ar      1 <0>        -0.0709
     18 N3          3.1536   -9.2391   -4.9245 N.2       1 <0>        -0.5175
     19 C14         2.9276  -10.4370   -4.4486 C.2       1 <0>         0.5037
     20 O3          2.2496  -10.3533   -3.2904 O.3       1 <0>        -0.2167
     21 N4          3.3261  -11.6124   -5.0468 N.pl3     1 <0>        -0.6079
     22 C15         2.9122  -12.8404   -4.5205 C.ar      1 <0>         0.1597
     23 C16         1.7281  -12.9247   -3.7990 C.ar      1 <0>        -0.1344
     24 C17         1.3220  -14.1383   -3.2805 C.ar      1 <0>        -0.0769
     25 C18         2.0936  -15.2700   -3.4786 C.ar      1 <0>        -0.0295
     26 C19         3.2735  -15.1890   -4.1968 C.ar      1 <0>        -0.0424
     27 C20         3.6814  -13.9788   -4.7230 C.ar      1 <0>        -0.1295
     28 C21         4.1114  -16.4233   -4.4100 C.3       1 <0>         0.0924
     29 N5          4.8150  -16.7586   -3.1649 N.3       1 <0>        -0.5251
     30 C22         5.8051  -15.7264   -2.8249 C.3       1 <0>         0.0165
     31 C23         6.4709  -16.0843   -1.4935 C.3       1 <0>         0.0640
     32 O4          7.0574  -17.3848   -1.5941 O.3       1 <0>        -0.3847
     33 C24         6.1212  -18.4147   -1.9234 C.3       1 <0>         0.0637
     34 C25         5.4519  -18.0803   -3.2591 C.3       1 <0>         0.0195
     35 Cl1         1.5806  -16.7940   -2.8243 Cl        1 <0>        -0.0507
     36 H1          6.2996   -5.5112    2.9435 H         1 <0>         0.0633
     37 H2          7.5892   -5.5726    1.7182 H         1 <0>         0.0630
     38 H3          7.4891   -4.1915    2.8365 H         1 <0>         0.0805
     39 H4          6.0539   -3.2433    1.2784 H         1 <0>         0.4141
     40 H5          3.5002   -6.0042   -1.2564 H         1 <0>         0.1545
     41 H6          2.1368   -2.2856   -2.8932 H         1 <0>         0.1536
     42 H7          3.6646   -1.1179   -1.3575 H         1 <0>         0.1755
     43 H8          0.8584   -6.4706   -1.1859 H         1 <0>         0.1503
     44 H9          0.9570   -8.9252   -1.1747 H         1 <0>         0.1475
     45 H10         2.9965   -6.3663   -4.8837 H         1 <0>         0.1482
     46 H11         3.8937  -11.5882   -5.8331 H         1 <0>         0.4443
     47 H12         1.1260  -12.0417   -3.6435 H         1 <0>         0.1397
     48 H13         0.4014  -14.2043   -2.7195 H         1 <0>         0.1417
     49 H14         4.6002  -13.9169   -5.2873 H         1 <0>         0.1378
     50 H15         3.4674  -17.2541   -4.6985 H         1 <0>         0.0953
     51 H16         4.8391  -16.2365   -5.1997 H         1 <0>         0.0508
     52 H17         6.5615  -15.6755   -3.6080 H         1 <0>         0.0439
     53 H18         5.3078  -14.7606   -2.7350 H         1 <0>         0.0858
     54 H19         7.2457  -15.3523   -1.2656 H         1 <0>         0.0978
     55 H20         5.7231  -16.0826   -0.7005 H         1 <0>         0.0606
     56 H21         6.6431  -19.3680   -2.0064 H         1 <0>         0.0991
     57 H22         5.3632  -18.4807   -1.1429 H         1 <0>         0.0611
     58 H23         4.6967  -18.8328   -3.4863 H         1 <0>         0.0885
     59 H24         6.2026  -18.0671   -4.0492 H         1 <0>         0.0448
@<TRIPOS>BOND
     1    1    2 1
     2    1   36 1
     3    1   37 1
     4    1   38 1
     5    2    3 am
     6    2   39 1
     7    3    4 2
     8    3    5 1
     9    5   10 ar
    10    5    6 ar
    11    6    7 ar
    12    6   40 1
    13    7    8 ar
    14    7   11 1
    15    8    9 ar
    16    8   41 1
    17    9   10 ar
    18    9   42 1
    19   11   12 1
    20   12   17 ar
    21   12   13 ar
    22   13   14 ar
    23   13   43 1
    24   14   15 ar
    25   14   44 1
    26   15   20 1
    27   15   16 ar
    28   16   17 ar
    29   16   18 1
    30   17   45 1
    31   18   19 2
    32   19   20 1
    33   19   21 1
    34   21   22 1
    35   21   46 1
    36   22   27 ar
    37   22   23 ar
    38   23   24 ar
    39   23   47 1
    40   24   25 ar
    41   24   48 1
    42   25   26 ar
    43   25   35 1
    44   26   27 ar
    45   26   28 1
    46   27   49 1
    47   28   29 1
    48   28   50 1
    49   28   51 1
    50   29   34 1
    51   29   30 1
    52   30   31 1
    53   30   52 1
    54   30   53 1
    55   31   32 1
    56   31   54 1
    57   31   55 1
    58   32   33 1
    59   33   34 1
    60   33   56 1
    61   33   57 1
    62   34   58 1
    63   34   59 1
@<TRIPOS>MOLECULE
CHEMBL230003
   69    74     0     0     0
SMALL
USER_CHARGES

@<TRIPOS>ATOM
      1 C1          0.9619    1.8847   -3.1327 C.3       1 <0>        -0.0479
      2 N1          0.6535    0.5921   -2.5065 N.4       1 <0>        -0.3927
      3 C2         -0.7895    0.3141   -2.6269 C.3       1 <0>        -0.0117
      4 C3         -1.3459    0.1577   -1.1960 C.3       1 <0>        -0.1402
      5 C4         -0.0853   -0.2078   -0.3689 C.3       1 <0>        -0.1387
      6 C5          1.0060    0.6379   -1.0714 C.3       1 <0>         0.0317
      7 H1          0.9829    1.6651   -0.7075 H         1 <0>         0.1599
      8 C6          2.3874    0.0213   -0.8423 C.3       1 <0>         0.0324
      9 O1          2.3481   -1.3697   -1.1674 O.3       1 <0>        -0.3103
     10 C7          3.5026   -2.0712   -1.0180 C.ar      1 <0>         0.1603
     11 C8          4.6466   -1.4349   -0.5628 C.ar      1 <0>        -0.2279
     12 C9          5.8240   -2.1541   -0.4109 C.ar      1 <0>         0.2132
     13 C10         5.8526   -3.5094   -0.7154 C.ar      1 <0>        -0.1620
     14 C11         4.7108   -4.1405   -1.1693 C.ar      1 <0>        -0.0315
     15 C12         3.5353   -3.4270   -1.3159 C.ar      1 <0>        -0.0841
     16 Cl1         2.1008   -4.2257   -1.8799 Cl        1 <0>        -0.0472
     17 N2          6.9805   -1.5151    0.0479 N.pl3     1 <0>        -0.6098
     18 C13         8.2211   -2.0111   -0.2883 C.2       1 <0>         0.4873
     19 N3          9.3588   -1.5670    0.1817 N.2       1 <0>        -0.5036
     20 C14        10.3713   -2.2911   -0.3691 C.ar      1 <0>         0.0666
     21 C15        11.7601   -2.2587   -0.2372 C.ar      1 <0>        -0.0557
     22 C16        12.5367   -3.1513   -0.9522 C.ar      1 <0>         0.0998
     23 C17        11.9390   -4.0780   -1.8001 C.ar      1 <0>        -0.0917
     24 C18        10.5666   -4.1164   -1.9366 C.ar      1 <0>        -0.0663
     25 C19         9.7752   -3.2286   -1.2257 C.ar      1 <0>         0.0060
     26 O2          8.4393   -3.0260   -1.1429 O.3       1 <0>        -0.2187
     27 O3         13.8901   -3.1230   -0.8264 O.3       1 <0>        -0.2316
     28 C20        14.4341   -3.6353    0.3016 C.ar      1 <0>         0.3951
     29 C21        15.8357   -3.7272    0.4535 C.ar      1 <0>        -0.1507
     30 C22        16.7209   -3.2970   -0.5440 C.ar      1 <0>        -0.1411
     31 C23        18.0670   -3.4092   -0.3435 C.ar      1 <0>         0.1145
     32 C24        18.5717   -3.9495    0.8481 C.ar      1 <0>         0.1715
     33 C25        17.7297   -4.3764    1.8366 C.ar      1 <0>        -0.1873
     34 C26        16.3443   -4.2734    1.6584 C.ar      1 <0>         0.1981
     35 N4         15.4770   -4.6778    2.5988 N.ar      1 <0>        -0.5199
     36 C27        14.1850   -4.5676    2.4017 C.ar      1 <0>         0.3366
     37 N5         13.6666   -4.0589    1.2947 N.ar      1 <0>        -0.5760
     38 O4         19.9152   -4.0504    1.0221 O.3       1 <0>        -0.2953
     39 C28        20.3693   -4.6090    2.2566 C.3       1 <0>         0.0187
     40 O5         18.9277   -2.9928   -1.3104 O.3       1 <0>        -0.2984
     41 C29        18.3528   -2.4520   -2.5016 C.3       1 <0>         0.0214
     42 H2          2.0264    2.0942   -3.0283 H         1 <0>         0.1205
     43 H3          0.7009    1.8475   -4.1903 H         1 <0>         0.1259
     44 H4          0.3871    2.6715   -2.6441 H         1 <0>         0.1243
     45 H5         -1.2863    1.1441   -3.1292 H         1 <0>         0.1335
     46 H6         -0.9440   -0.6077   -3.1877 H         1 <0>         0.1326
     47 H7         -1.7780    1.0951   -0.8459 H         1 <0>         0.0993
     48 H8         -2.0808   -0.6462   -1.1540 H         1 <0>         0.1147
     49 H9         -0.2013    0.0919    0.6727 H         1 <0>         0.1184
     50 H10         0.1365   -1.2723   -0.4449 H         1 <0>         0.1118
     51 H11         3.1186    0.5222   -1.4768 H         1 <0>         0.0898
     52 H12         2.6704    0.1422    0.2034 H         1 <0>         0.1137
     53 H13         4.6221   -0.3813   -0.3270 H         1 <0>         0.1443
     54 H14         6.7683   -4.0697   -0.5974 H         1 <0>         0.1485
     55 H15         4.7351   -5.1940   -1.4059 H         1 <0>         0.1539
     56 H16         6.9090   -0.7226    0.6027 H         1 <0>         0.4448
     57 H17        12.2260   -1.5395    0.4201 H         1 <0>         0.1428
     58 H18        12.5530   -4.7716   -2.3554 H         1 <0>         0.1523
     59 H19        10.1093   -4.8385   -2.5967 H         1 <0>         0.1478
     60 H20        16.3411   -2.8800   -1.4651 H         1 <0>         0.1541
     61 H21        18.1304   -4.7907    2.7499 H         1 <0>         0.1596
     62 H22        13.5141   -4.9030    3.1788 H         1 <0>         0.2010
     63 H23        21.4590   -4.6320    2.2659 H         1 <0>         0.1094
     64 H24        20.0117   -3.9978    3.0853 H         1 <0>         0.0632
     65 H25        19.9836   -5.6231    2.3602 H         1 <0>         0.0634
     66 H26        19.1473   -2.1594   -3.1881 H         1 <0>         0.1074
     67 H27        17.7225   -3.2047   -2.9750 H         1 <0>         0.0596
     68 H28        17.7501   -1.5792   -2.2504 H         1 <0>         0.0594
     69 H29         1.1775   -0.1402   -2.9617 H         1 <0>         0.4306
@<TRIPOS>BOND
     1    1    2 1
     2    1   42 1
     3    1   43 1
     4    1   44 1
     5    2    6 1
     6    2    3 1
     7    2   69 1
     8    3    4 1
     9    3   45 1
    10    3   46 1
    11    4    5 1
    12    4   47 1
    13    4   48 1
    14    5    6 1
    15    5   49 1
    16    5   50 1
    17    6    7 1
    18    6    8 1
    19    8    9 1
    20    8   51 1
    21    8   52 1
    22    9   10 1
    23   10   15 ar
    24   10   11 ar
    25   11   12 ar
    26   11   53 1
    27   12   13 ar
    28   12   17 1
    29   13   14 ar
    30   13   54 1
    31   14   15 ar
    32   14   55 1
    33   15   16 1
    34   17   18 1
    35   17   56 1
    36   18   26 1
    37   18   19 2
    38   19   20 1
    39   20   25 ar
    40   20   21 ar
    41   21   22 ar
    42   21   57 1
    43   22   23 ar
    44   22   27 1
    45   23   24 ar
    46   23   58 1
    47   24   25 ar
    48   24   59 1
    49   25   26 1
    50   27   28 1
    51   28   37 ar
    52   28   29 ar
    53   29   34 ar
    54   29   30 ar
    55   30   31 ar
    56   30   60 1
    57   31   32 ar
    58   31   40 1
    59   32   33 ar
    60   32   38 1
    61   33   34 ar
    62   33   61 1
    63   34   35 ar
    64   35   36 ar
    65   36   37 ar
    66   36   62 1
    67   38   39 1
    68   39   63 1
    69   39   64 1
    70   39   65 1
    71   40   41 1
    72   41   66 1
    73   41   67 1
    74   41   68 1
@<TRIPOS>MOLECULE
CHEMBL230107
   72    77     0     0     0
SMALL
USER_CHARGES

@<TRIPOS>ATOM
      1 C1         -4.1575   -5.5100   -3.2111 C.3       1 <0>        -0.0462
      2 N1         -3.9444   -4.7511   -1.9715 N.4       1 <0>        -0.3879
      3 C2         -2.7155   -3.9554   -2.0900 C.3       1 <0>        -0.0028
      4 C3         -2.5031   -3.1502   -0.8062 C.3       1 <0>         0.0273
      5 N2         -2.4031   -4.0708    0.3351 N.3       1 <0>        -0.5313
      6 C4         -3.6165   -4.8918    0.4515 C.3       1 <0>         0.0239
      7 C5         -3.8197   -5.6827   -0.8428 C.3       1 <0>        -0.0022
      8 C6         -2.1418   -3.3380    1.5812 C.3       1 <0>         0.0959
      9 C7         -1.6554   -4.2981    2.6361 C.ar      1 <0>        -0.0558
     10 C8         -2.4788   -4.6388    3.6914 C.ar      1 <0>        -0.1266
     11 C9         -2.0300   -5.5236    4.6631 C.ar      1 <0>         0.1564
     12 C10        -0.7535   -6.0636    4.5707 C.ar      1 <0>        -0.1246
     13 C11         0.0655   -5.7196    3.5136 C.ar      1 <0>        -0.0755
     14 C12        -0.3865   -4.8419    2.5435 C.ar      1 <0>        -0.0248
     15 Cl1         0.6430   -4.4174    1.2117 Cl        1 <0>        -0.0456
     16 N3         -2.8616   -5.8700    5.7331 N.pl3     1 <0>        -0.6071
     17 C13        -2.3126   -6.2082    6.9507 C.2       1 <0>         0.5112
     18 N4         -2.9881   -6.6492    7.9812 N.2       1 <0>        -0.5154
     19 C14        -2.1214   -6.8793    9.0053 C.ar      1 <0>         0.0768
     20 C15        -2.2771   -7.3436   10.3120 C.ar      1 <0>        -0.0584
     21 C16        -1.1698   -7.4710   11.1298 C.ar      1 <0>         0.0554
     22 C17         0.0947   -7.1382   10.6548 C.ar      1 <0>        -0.1130
     23 C18         0.2571   -6.6780    9.3644 C.ar      1 <0>        -0.0542
     24 C19        -0.8432   -6.5459    8.5329 C.ar      1 <0>         0.0139
     25 O1         -1.0040   -6.1389    7.2518 O.3       1 <0>        -0.2153
     26 O2         -1.3173   -7.9230   12.4034 O.3       1 <0>        -0.2080
     27 C20        -1.3239   -7.0102   13.4060 C.ar      1 <0>         0.2802
     28 C21        -1.0786   -5.6716   13.1536 C.ar      1 <0>        -0.2639
     29 C22        -1.0920   -4.7597   14.2009 C.ar      1 <0>         0.2256
     30 N5         -1.3320   -5.1294   15.4373 N.ar      1 <0>        -0.4790
     31 C23        -1.5766   -6.4064   15.7530 C.ar      1 <0>         0.1827
     32 C24        -1.5871   -7.3954   14.7394 C.ar      1 <0>        -0.0877
     33 C25        -1.8500   -8.7330   15.0726 C.ar      1 <0>        -0.1395
     34 C26        -2.0997   -9.0689   16.3715 C.ar      1 <0>         0.1378
     35 C27        -2.0968   -8.0906   17.3766 C.ar      1 <0>         0.2186
     36 C28        -1.8306   -6.7847   17.0822 C.ar      1 <0>        -0.2365
     37 O3         -2.3488   -8.4500   18.6626 O.3       1 <0>        -0.2761
     38 C29        -2.3321   -7.4096   19.6421 C.3       1 <0>         0.0111
     39 O4         -2.3544  -10.3650   16.6945 O.3       1 <0>        -0.2851
     40 C30        -2.3436  -11.3140   15.6262 C.3       1 <0>         0.0146
     41 H1         -5.0701   -6.0996   -3.1239 H         1 <0>         0.1246
     42 H2         -4.2501   -4.8189   -4.0489 H         1 <0>         0.1255
     43 H3         -3.3104   -6.1747   -3.3804 H         1 <0>         0.1235
     44 H4         -1.8659   -4.6202   -2.2467 H         1 <0>         0.1386
     45 H5         -2.8042   -3.2738   -2.9360 H         1 <0>         0.1377
     46 H6         -1.5833   -2.5711   -0.8881 H         1 <0>         0.1254
     47 H7         -3.3460   -2.4755   -0.6564 H         1 <0>         0.0633
     48 H8         -3.5090   -5.5833    1.2871 H         1 <0>         0.1208
     49 H9         -4.4778   -4.2458    0.6219 H         1 <0>         0.0624
     50 H10        -4.7270   -6.2815   -0.7640 H         1 <0>         0.1356
     51 H11        -2.9645   -6.3386   -1.0058 H         1 <0>         0.1379
     52 H12        -1.3810   -2.5780    1.4031 H         1 <0>         0.1053
     53 H13        -3.0605   -2.8599    1.9210 H         1 <0>         0.0638
     54 H14        -3.4707   -4.2172    3.7610 H         1 <0>         0.1397
     55 H15        -0.4018   -6.7517    5.3252 H         1 <0>         0.1402
     56 H16         1.0582   -6.1389    3.4415 H         1 <0>         0.1459
     57 H17        -3.8247   -5.8721    5.6179 H         1 <0>         0.4464
     58 H18        -3.2580   -7.6018   10.6828 H         1 <0>         0.1537
     59 H19         0.9545   -7.2404   11.3004 H         1 <0>         0.1568
     60 H20         1.2417   -6.4207    9.0025 H         1 <0>         0.1549
     61 H21        -0.8773   -5.3377   12.1464 H         1 <0>         0.1835
     62 H22        -0.8993   -3.7177   13.9924 H         1 <0>         0.2124
     63 H23        -1.8550   -9.4927   14.3050 H         1 <0>         0.1732
     64 H24        -1.8309   -6.0419   17.8662 H         1 <0>         0.1723
     65 H25        -2.5479   -7.8313   20.6238 H         1 <0>         0.1228
     66 H26        -1.3486   -6.9400   19.6566 H         1 <0>         0.0703
     67 H27        -3.0872   -6.6640   19.3930 H         1 <0>         0.0699
     68 H28        -3.1002  -11.0414   14.8904 H         1 <0>         0.0671
     69 H29        -1.3616  -11.3175   15.1533 H         1 <0>         0.0676
     70 H30        -2.5609  -12.3069   16.0200 H         1 <0>         0.1195
     71 H31        -4.7289   -4.1362   -1.8148 H         1 <0>         0.4225
     72 H32        -1.3317   -4.4602   16.1396 H         1 <0>         0.4485
@<TRIPOS>BOND
     1    1    2 1
     2    1   41 1
     3    1   42 1
     4    1   43 1
     5    2    7 1
     6    2    3 1
     7    2   71 1
     8    3    4 1
     9    3   44 1
    10    3   45 1
    11    4    5 1
    12    4   46 1
    13    4   47 1
    14    5    6 1
    15    5    8 1
    16    6    7 1
    17    6   48 1
    18    6   49 1
    19    7   50 1
    20    7   51 1
    21    8    9 1
    22    8   52 1
    23    8   53 1
    24    9   14 ar
    25    9   10 ar
    26   10   11 ar
    27   10   54 1
    28   11   12 ar
    29   11   16 1
    30   12   13 ar
    31   12   55 1
    32   13   14 ar
    33   13   56 1
    34   14   15 1
    35   16   17 1
    36   16   57 1
    37   17   25 1
    38   17   18 2
    39   18   19 1
    40   19   24 ar
    41   19   20 ar
    42   20   21 ar
    43   20   58 1
    44   21   22 ar
    45   21   26 1
    46   22   23 ar
    47   22   59 1
    48   23   24 ar
    49   23   60 1
    50   24   25 1
    51   26   27 1
    52   27   32 ar
    53   27   28 ar
    54   28   29 ar
    55   28   61 1
    56   29   30 ar
    57   29   62 1
    58   30   31 ar
    59   30   72 1
    60   31   36 ar
    61   31   32 ar
    62   32   33 ar
    63   33   34 ar
    64   33   63 1
    65   34   35 ar
    66   34   39 1
    67   35   36 ar
    68   35   37 1
    69   36   64 1
    70   37   38 1
    71   38   65 1
    72   38   66 1
    73   38   67 1
    74   39   40 1
    75   40   68 1
    76   40   69 1
    77   40   70 1
@<TRIPOS>MOLECULE
CHEMBL389963
   71    76     0     0     0
SMALL
USER_CHARGES

@<TRIPOS>ATOM
      1 C1         -0.2379    0.0179    1.7930 C.3       1 <0>        -0.0483
      2 N1         -0.0408   -1.3454    1.2825 N.4       1 <0>        -0.3924
      3 C2         -1.3178   -2.0811    1.3265 C.3       1 <0>        -0.0121
      4 C3         -1.1022   -3.3176    2.2243 C.3       1 <0>        -0.1405
      5 C4          0.4353   -3.5194    2.1781 C.3       1 <0>        -0.1388
      6 C5          0.9415   -2.0562    2.1284 C.3       1 <0>         0.0312
      7 H1          0.9606   -1.6270    3.1302 H         1 <0>         0.1610
      8 C6          2.3329   -1.9952    1.4949 C.3       1 <0>         0.0328
      9 O1          2.3252   -2.7117    0.2586 O.3       1 <0>        -0.3086
     10 C7          3.4923   -2.7552   -0.4367 C.ar      1 <0>         0.1608
     11 C8          4.6214   -2.1264    0.0638 C.ar      1 <0>        -0.2194
     12 C9          5.8118   -2.1726   -0.6486 C.ar      1 <0>         0.1988
     13 C10         5.8683   -2.8487   -1.8610 C.ar      1 <0>        -0.1582
     14 C11         4.7411   -3.4744   -2.3572 C.ar      1 <0>        -0.0342
     15 C12         3.5557   -3.4345   -1.6461 C.ar      1 <0>        -0.0774
     16 Cl1         2.1433   -4.2283   -2.2698 Cl        1 <0>        -0.0394
     17 N2          6.9530   -1.5387   -0.1467 N.pl3     1 <0>        -0.6070
     18 C13         8.2030   -2.0426   -0.4328 C.2       1 <0>         0.5095
     19 N3          9.3301   -1.5517    0.0157 N.2       1 <0>        -0.5119
     20 C14        10.3571   -2.3013   -0.4704 C.ar      1 <0>         0.0755
     21 C15        11.7438   -2.2425   -0.3265 C.ar      1 <0>        -0.0571
     22 C16        12.5387   -3.1750   -0.9666 C.ar      1 <0>         0.0560
     23 C17        11.9613   -4.1681   -1.7513 C.ar      1 <0>        -0.1119
     24 C18        10.5911   -4.2332   -1.8987 C.ar      1 <0>        -0.0542
     25 C19         9.7816   -3.3057   -1.2629 C.ar      1 <0>         0.0145
     26 O2          8.4426   -3.1140   -1.2092 O.3       1 <0>        -0.2140
     27 O3         13.8901   -3.1211   -0.8289 O.3       1 <0>        -0.2081
     28 C20        14.6120   -2.5803   -1.8413 C.ar      1 <0>         0.2799
     29 C21        14.0001   -2.1665   -3.0119 C.ar      1 <0>        -0.2641
     30 C22        14.7656   -1.6162   -4.0316 C.ar      1 <0>         0.2258
     31 N4         16.0658   -1.4741   -3.9214 N.ar      1 <0>        -0.4788
     32 C23        16.7221   -1.8528   -2.8186 C.ar      1 <0>         0.1828
     33 C24        16.0108   -2.4166   -1.7315 C.ar      1 <0>        -0.0876
     34 C25        16.7009   -2.8068   -0.5735 C.ar      1 <0>        -0.1399
     35 C26        18.0527   -2.6336   -0.5023 C.ar      1 <0>         0.1381
     36 C27        18.7590   -2.0691   -1.5746 C.ar      1 <0>         0.2188
     37 C28        18.1146   -1.6941   -2.7178 C.ar      1 <0>        -0.2364
     38 O4         20.1047   -1.9065   -1.4794 O.3       1 <0>        -0.2760
     39 C29        20.7692   -1.3262   -2.6036 C.3       1 <0>         0.0110
     40 O5         18.7215   -3.0117    0.6196 O.3       1 <0>        -0.2849
     41 C30        17.9458   -3.5797    1.6769 C.3       1 <0>         0.0147
     42 H2          0.7110    0.5539    1.7735 H         1 <0>         0.1201
     43 H3         -0.9625    0.5390    1.1672 H         1 <0>         0.1269
     44 H4         -0.6085   -0.0276    2.8170 H         1 <0>         0.1251
     45 H5         -2.0968   -1.4469    1.7496 H         1 <0>         0.1348
     46 H6         -1.5986   -2.3969    0.3218 H         1 <0>         0.1331
     47 H7         -1.4341   -3.1168    3.2430 H         1 <0>         0.1004
     48 H8         -1.6174   -4.1862    1.8142 H         1 <0>         0.1155
     49 H9          0.7900   -4.0249    3.0763 H         1 <0>         0.1186
     50 H10         0.7307   -4.0654    1.2821 H         1 <0>         0.1110
     51 H11         2.6028   -0.9554    1.3105 H         1 <0>         0.0905
     52 H12         3.0600   -2.4449    2.1710 H         1 <0>         0.1136
     53 H13         4.5751   -1.6011    1.0063 H         1 <0>         0.1463
     54 H14         6.7940   -2.8848   -2.4161 H         1 <0>         0.1467
     55 H15         4.7868   -3.9993   -3.3000 H         1 <0>         0.1555
     56 H16         6.8645   -0.7443    0.4029 H         1 <0>         0.4475
     57 H17        12.1940   -1.4719    0.2817 H         1 <0>         0.1543
     58 H18        12.5896   -4.8923   -2.2485 H         1 <0>         0.1572
     59 H19        10.1496   -5.0070   -2.5091 H         1 <0>         0.1555
     60 H20        12.9320   -2.2715   -3.1319 H         1 <0>         0.1833
     61 H21        14.2776   -1.2968   -4.9406 H         1 <0>         0.2125
     62 H22        16.1650   -3.2416    0.2572 H         1 <0>         0.1731
     63 H23        18.6710   -1.2613   -3.5361 H         1 <0>         0.1725
     64 H24        20.3663   -0.3306   -2.7896 H         1 <0>         0.0700
     65 H25        21.8369   -1.2533   -2.3968 H         1 <0>         0.1230
     66 H26        20.6111   -1.9520   -3.4819 H         1 <0>         0.0704
     67 H27        18.6001   -3.8366    2.5099 H         1 <0>         0.1195
     68 H28        17.2007   -2.8570    2.0096 H         1 <0>         0.0671
     69 H29        17.4450   -4.4786    1.3176 H         1 <0>         0.0676
     70 H30         0.2944   -1.3075    0.3316 H         1 <0>         0.4297
     71 H31        16.5632   -1.0851   -4.6577 H         1 <0>         0.4487
@<TRIPOS>BOND
     1    1    2 1
     2    1   42 1
     3    1   43 1
     4    1   44 1
     5    2    6 1
     6    2    3 1
     7    2   70 1
     8    3    4 1
     9    3   45 1
    10    3   46 1
    11    4    5 1
    12    4   47 1
    13    4   48 1
    14    5    6 1
    15    5   49 1
    16    5   50 1
    17    6    7 1
    18    6    8 1
    19    8    9 1
    20    8   51 1
    21    8   52 1
    22    9   10 1
    23   10   15 ar
    24   10   11 ar
    25   11   12 ar
    26   11   53 1
    27   12   13 ar
    28   12   17 1
    29   13   14 ar
    30   13   54 1
    31   14   15 ar
    32   14   55 1
    33   15   16 1
    34   17   18 1
    35   17   56 1
    36   18   26 1
    37   18   19 2
    38   19   20 1
    39   20   25 ar
    40   20   21 ar
    41   21   22 ar
    42   21   57 1
    43   22   23 ar
    44   22   27 1
    45   23   24 ar
    46   23   58 1
    47   24   25 ar
    48   24   59 1
    49   25   26 1
    50   27   28 1
    51   28   33 ar
    52   28   29 ar
    53   29   30 ar
    54   29   60 1
    55   30   31 ar
    56   30   61 1
    57   31   32 ar
    58   31   71 1
    59   32   37 ar
    60   32   33 ar
    61   33   34 ar
    62   34   35 ar
    63   34   62 1
    64   35   36 ar
    65   35   40 1
    66   36   37 ar
    67   36   38 1
    68   37   63 1
    69   38   39 1
    70   39   64 1
    71   39   65 1
    72   39   66 1
    73   40   41 1
    74   41   67 1
    75   41   68 1
    76   41   69 1
@<TRIPOS>MOLECULE
CHEMBL230222
   60    65     0     0     0
SMALL
USER_CHARGES

@<TRIPOS>ATOM
      1 C1          3.1007   -0.1880    0.7840 C.3       1 <0>        -0.0630
      2 N1          1.8847   -0.8989    0.3667 N.4       1 <0>        -0.3836
      3 C2          1.6007   -0.6069   -1.0545 C.3       1 <0>        -0.0114
      4 C3          0.0555   -0.5414   -1.1437 C.3       1 <0>        -0.1444
      5 C4         -0.3078    0.1355    0.2041 C.3       1 <0>        -0.1308
      6 C5          0.7406   -0.4431    1.1774 C.3       1 <0>         0.0228
      7 H1          0.3147   -1.2845    1.7239 H         1 <0>         0.1527
      8 C6          1.1956    0.6408    2.1568 C.3       1 <0>         0.0384
      9 O1          0.0651    1.1386    2.8753 O.3       1 <0>        -0.2871
     10 C7          0.2977    2.1144    3.7925 C.ar      1 <0>         0.1606
     11 C8          1.5855    2.5860    3.9918 C.ar      1 <0>        -0.2283
     12 C9          1.8198    3.5824    4.9291 C.ar      1 <0>         0.2081
     13 C10         0.7631    4.1043    5.6649 C.ar      1 <0>        -0.1595
     14 C11        -0.5194    3.6321    5.4639 C.ar      1 <0>        -0.0320
     15 C12        -0.7557    2.6433    4.5264 C.ar      1 <0>        -0.0804
     16 Cl1        -2.3701    2.0578    4.2718 Cl        1 <0>        -0.0410
     17 N2          3.1183    4.0604    5.1331 N.pl3     1 <0>        -0.6113
     18 C13         3.3174    5.3608    5.5425 C.2       1 <0>         0.4904
     19 N3          4.4775    5.8790    5.8560 N.2       1 <0>        -0.5073
     20 C14         4.2929    7.1800    6.2113 C.ar      1 <0>         0.0680
     21 C15         5.1544    8.1951    6.6291 C.ar      1 <0>        -0.0808
     22 C16         4.6459    9.4460    6.9250 C.ar      1 <0>         0.0972
     23 C17         3.2821    9.6943    6.8076 C.ar      1 <0>        -0.0987
     24 C18         2.4235    8.6960    6.3956 C.ar      1 <0>        -0.0632
     25 C19         2.9188    7.4373    6.0951 C.ar      1 <0>         0.0023
     26 O2          2.3489    6.2844    5.6727 O.3       1 <0>        -0.2179
     27 O3          5.4819   10.4375    7.3328 O.3       1 <0>        -0.2403
     28 C20         6.2336   11.0638    6.3927 C.ar      1 <0>         0.2095
     29 C21         6.0748   10.7789    5.0422 C.ar      1 <0>        -0.2833
     30 C22         6.8603   11.4386    4.1135 C.ar      1 <0>         0.1756
     31 N4          7.7574   12.3317    4.4771 N.ar      1 <0>        -0.5148
     32 C23         7.9552   12.6463    5.7520 C.ar      1 <0>         0.3166
     33 C24         7.1907   12.0227    6.7536 C.ar      1 <0>        -0.1757
     34 C25         7.6414   12.5886    8.0259 C.2       1 <0>        -0.1770
     35 C26         8.6005   13.4820    7.7364 C.2       1 <0>         0.0561
     36 N5          8.8064   13.5213    6.3825 N.pl3     1 <0>        -0.5775
     37 H2          9.4499   14.0919    5.9340 H         1 <0>         0.4246
     38 H3          3.2719   -0.3543    1.8476 H         1 <0>         0.1262
     39 H4          3.9528   -0.5615    0.2161 H         1 <0>         0.1310
     40 H5          2.9796    0.8791    0.5980 H         1 <0>         0.1251
     41 H6          2.0381    0.3498   -1.3401 H         1 <0>         0.1337
     42 H7          1.9840   -1.4052   -1.6899 H         1 <0>         0.1399
     43 H8         -0.2612    0.0725   -1.9869 H         1 <0>         0.1199
     44 H9         -0.3746   -1.5410   -1.2071 H         1 <0>         0.1016
     45 H10        -0.2091    1.2185    0.1304 H         1 <0>         0.1013
     46 H11        -1.3156   -0.1404    0.5146 H         1 <0>         0.1198
     47 H12         1.9146    0.2179    2.8584 H         1 <0>         0.0890
     48 H13         1.6631    1.4562    1.6048 H         1 <0>         0.0880
     49 H14         2.4055    2.1786    3.4190 H         1 <0>         0.1397
     50 H15         0.9446    4.8794    6.3947 H         1 <0>         0.1465
     51 H16        -1.3395    4.0387    6.0370 H         1 <0>         0.1547
     52 H17         3.8788    3.4763    4.9864 H         1 <0>         0.4436
     53 H18         6.2134    8.0042    6.7212 H         1 <0>         0.1468
     54 H19         2.8930   10.6744    7.0407 H         1 <0>         0.1552
     55 H20         1.3658    8.8955    6.3073 H         1 <0>         0.1487
     56 H21         5.3459   10.0498    4.7205 H         1 <0>         0.1390
     57 H22         6.7349   11.2153    3.0643 H         1 <0>         0.1649
     58 H23         7.2728   12.3361    9.0091 H         1 <0>         0.1546
     59 H24         9.1370   14.0739    8.4632 H         1 <0>         0.1831
     60 H25         2.0126   -1.8923    0.4883 H         1 <0>         0.4340
@<TRIPOS>BOND
     1    1    2 1
     2    1   38 1
     3    1   39 1
     4    1   40 1
     5    2    6 1
     6    2    3 1
     7    2   60 1
     8    3    4 1
     9    3   41 1
    10    3   42 1
    11    4    5 1
    12    4   43 1
    13    4   44 1
    14    5    6 1
    15    5   45 1
    16    5   46 1
    17    6    7 1
    18    6    8 1
    19    8    9 1
    20    8   47 1
    21    8   48 1
    22    9   10 1
    23   10   15 ar
    24   10   11 ar
    25   11   12 ar
    26   11   49 1
    27   12   13 ar
    28   12   17 1
    29   13   14 ar
    30   13   50 1
    31   14   15 ar
    32   14   51 1
    33   15   16 1
    34   17   18 1
    35   17   52 1
    36   18   26 1
    37   18   19 2
    38   19   20 1
    39   20   25 ar
    40   20   21 ar
    41   21   22 ar
    42   21   53 1
    43   22   23 ar
    44   22   27 1
    45   23   24 ar
    46   23   54 1
    47   24   25 ar
    48   24   55 1
    49   25   26 1
    50   27   28 1
    51   28   33 ar
    52   28   29 ar
    53   29   30 ar
    54   29   56 1
    55   30   31 ar
    56   30   57 1
    57   31   32 ar
    58   32   36 1
    59   32   33 ar
    60   33   34 1
    61   34   35 2
    62   34   58 1
    63   35   36 1
    64   35   59 1
    65   36   37 1
@<TRIPOS>MOLECULE
CHEMBL425825
   61    65     0     0     0
SMALL
USER_CHARGES

@<TRIPOS>ATOM
      1 C1          5.6582    3.0630    0.7686 C.3       1 <0>         0.0869
      2 N1          6.9751    2.5571    0.3736 N.pl3     1 <0>        -0.7095
      3 C2          7.0998    1.7481   -0.7449 C.ar      1 <0>         0.4612
      4 C3          5.9808    1.4144   -1.5042 C.ar      1 <0>        -0.3052
      5 C4          6.1585    0.6007   -2.6158 C.ar      1 <0>         0.3834
      6 N2          7.3822    0.1719   -2.9140 N.ar      1 <0>        -0.6037
      7 C5          8.4170    0.5089   -2.1716 C.ar      1 <0>         0.3770
      8 N3          8.2916    1.2829   -1.1128 N.ar      1 <0>        -0.5915
      9 O1          5.1001    0.2482   -3.3856 O.3       1 <0>        -0.2369
     10 C6          5.3436   -0.4634   -4.5183 C.ar      1 <0>         0.1090
     11 C7          5.6555   -1.8163   -4.4328 C.ar      1 <0>        -0.0884
     12 C8          5.9046   -2.5491   -5.5750 C.ar      1 <0>        -0.0666
     13 C9          5.8447   -1.9373   -6.8166 C.ar      1 <0>         0.0024
     14 C10         5.5308   -0.5733   -6.9103 C.ar      1 <0>         0.0670
     15 C11         5.2747    0.1592   -5.7505 C.ar      1 <0>        -0.0683
     16 N4          5.5465   -0.2595   -8.2348 N.2       1 <0>        -0.5085
     17 C12         5.8451   -1.3353   -8.9175 C.2       1 <0>         0.4888
     18 O2          6.0327   -2.3737   -8.0842 O.3       1 <0>        -0.2209
     19 N5          5.9517   -1.3950  -10.2899 N.pl3     1 <0>        -0.6114
     20 C13         6.1447   -2.6271  -10.9234 C.ar      1 <0>         0.1711
     21 C14         5.7009   -3.7969  -10.3198 C.ar      1 <0>        -0.1288
     22 C15         5.8928   -5.0118  -10.9474 C.ar      1 <0>        -0.0728
     23 C16         6.5269   -5.0647  -12.1765 C.ar      1 <0>        -0.0328
     24 C17         6.9699   -3.9011  -12.7799 C.ar      1 <0>        -0.0580
     25 C18         6.7751   -2.6825  -12.1595 C.ar      1 <0>        -0.1356
     26 C19         7.6604   -3.9627  -14.1180 C.3       1 <0>         0.0977
     27 N6          9.0277   -4.4696  -13.9406 N.3       1 <0>        -0.5302
     28 C20         9.8463   -3.5196  -13.1741 C.3       1 <0>         0.0225
     29 C21        11.2419   -4.1099  -12.9605 C.3       1 <0>        -0.0020
     30 N7         11.8644   -4.3791  -14.2634 N.4       1 <0>        -0.3880
     31 C22        11.0485   -5.3480  -15.0070 C.3       1 <0>        -0.0022
     32 C23         9.6513   -4.7680  -15.2376 C.3       1 <0>         0.0270
     33 C24        13.2111   -4.9289  -14.0580 C.3       1 <0>        -0.0457
     34 Cl1         6.7674   -6.5940  -12.9621 Cl        1 <0>        -0.0523
     35 H1          5.2429    3.6652   -0.0395 H         1 <0>         0.0631
     36 H2          4.9936    2.2241    0.9750 H         1 <0>         0.0634
     37 H3          5.7581    3.6762    1.6642 H         1 <0>         0.0870
     38 H4          7.7598    2.7883    0.8949 H         1 <0>         0.4140
     39 H5          5.0003    1.7786   -1.2353 H         1 <0>         0.1506
     40 H6          9.3970    0.1438   -2.4412 H         1 <0>         0.2009
     41 H7          5.7033   -2.2960   -3.4663 H         1 <0>         0.1468
     42 H8          6.1465   -3.5991   -5.5012 H         1 <0>         0.1442
     43 H9          5.0281    1.2087   -5.8150 H         1 <0>         0.1452
     44 H10         5.8930   -0.5827  -10.8167 H         1 <0>         0.4443
     45 H11         5.2067   -3.7562   -9.3604 H         1 <0>         0.1439
     46 H12         5.5480   -5.9216  -10.4785 H         1 <0>         0.1443
     47 H13         7.1171   -1.7741  -12.6330 H         1 <0>         0.1378
     48 H14         7.1090   -4.6294  -14.7811 H         1 <0>         0.1052
     49 H15         7.6967   -2.9646  -14.5545 H         1 <0>         0.0616
     50 H16         9.9281   -2.5828  -13.7252 H         1 <0>         0.0616
     51 H17         9.3783   -3.3336  -12.2074 H         1 <0>         0.1230
     52 H18        11.8551   -3.4008  -12.4044 H         1 <0>         0.1351
     53 H19        11.1608   -5.0397  -12.3975 H         1 <0>         0.1380
     54 H20        11.5183   -5.5568  -15.9682 H         1 <0>         0.1363
     55 H21        10.9684   -6.2715  -14.4336 H         1 <0>         0.1383
     56 H22         9.0410   -5.4928  -15.7764 H         1 <0>         0.1251
     57 H23         9.7299   -3.8517  -15.8227 H         1 <0>         0.0621
     58 H24        13.1421   -5.8564  -13.4896 H         1 <0>         0.1232
     59 H25        13.6733   -5.1287  -15.0248 H         1 <0>         0.1244
     60 H26        13.8171   -4.2095  -13.5073 H         1 <0>         0.1239
     61 H27        11.9288   -3.5202  -14.7890 H         1 <0>         0.4221
@<TRIPOS>BOND
     1    1    2 1
     2    1   35 1
     3    1   36 1
     4    1   37 1
     5    2    3 1
     6    2   38 1
     7    3    8 ar
     8    3    4 ar
     9    4    5 ar
    10    4   39 1
    11    5    6 ar
    12    5    9 1
    13    6    7 ar
    14    7    8 ar
    15    7   40 1
    16    9   10 1
    17   10   15 ar
    18   10   11 ar
    19   11   12 ar
    20   11   41 1
    21   12   13 ar
    22   12   42 1
    23   13   18 1
    24   13   14 ar
    25   14   15 ar
    26   14   16 1
    27   15   43 1
    28   16   17 2
    29   17   18 1
    30   17   19 1
    31   19   20 1
    32   19   44 1
    33   20   25 ar
    34   20   21 ar
    35   21   22 ar
    36   21   45 1
    37   22   23 ar
    38   22   46 1
    39   23   24 ar
    40   23   34 1
    41   24   25 ar
    42   24   26 1
    43   25   47 1
    44   26   27 1
    45   26   48 1
    46   26   49 1
    47   27   32 1
    48   27   28 1
    49   28   29 1
    50   28   50 1
    51   28   51 1
    52   29   30 1
    53   29   52 1
    54   29   53 1
    55   30   31 1
    56   30   33 1
    57   30   61 1
    58   31   32 1
    59   31   54 1
    60   31   55 1
    61   32   56 1
    62   32   57 1
    63   33   58 1
    64   33   59 1
    65   33   60 1
@<TRIPOS>MOLECULE
CHEMBL323838
   50    54     0     0     0
SMALL
USER_CHARGES

@<TRIPOS>ATOM
      1 C1         -0.0164    1.3606    0.0095 C.ar      1 <0>        -0.1489
      2 C2          1.1695    2.0826    0.0021 C.ar      1 <0>        -0.0486
      3 C3          2.3855    1.4349   -0.0130 C.ar      1 <0>        -0.1666
      4 C4          2.4309    0.0432   -0.0210 C.ar      1 <0>         0.1976
      5 C5          1.2276   -0.6864   -0.0134 C.ar      1 <0>        -0.1415
      6 C6          0.0021   -0.0041    0.0020 C.ar      1 <0>        -0.0497
      7 C7          1.2573   -2.1036   -0.0208 C.2       1 <0>         0.0180
      8 C8          2.4756   -2.7493   -0.0355 C.2       1 <0>        -0.1523
      9 C9          3.7089   -1.9541   -0.0430 C.2       1 <0>         0.5458
     10 N1          3.6467   -0.6094   -0.0357 N.am      1 <0>        -0.6261
     11 O1          4.7915   -2.5121   -0.0560 O.2       1 <0>        -0.5147
     12 C10         2.5386   -4.2239   -0.0430 C.2       1 <0>         0.1404
     13 C11         3.0450   -4.9916    0.9562 C.2       1 <0>        -0.1475
     14 C12         2.9085   -6.3842    0.5342 C.ar      1 <0>        -0.1272
     15 C13         3.2403   -7.6099    1.1196 C.ar      1 <0>         0.0492
     16 C14         2.9779   -8.7729    0.4530 C.ar      1 <0>        -0.7074
     17 C15         2.3846   -8.7481   -0.8020 C.ar      1 <0>        -0.0231
     18 C16         2.0493   -7.5516   -1.3979 C.ar      1 <0>        -0.1371
     19 C17         2.3063   -6.3544   -0.7383 C.ar      1 <0>         0.1516
     20 N2          2.0877   -5.0327   -1.0611 N.pl3     1 <0>        -0.5807
     21 H1          1.6797   -4.7193   -1.8835 H         1 <0>         0.4210
     22 S1          3.3963  -10.3170    1.1915 S.o2      1 <0>         2.7075
     23 O2          3.5460  -11.2482    0.1286 O.2       1 <0>        -0.9417
     24 O3          4.4347  -10.0527    2.1247 O.2       1 <0>        -0.9347
     25 N3          2.0832  -10.8105    2.0716 N.pl3     1 <0>        -1.0127
     26 C18         1.8263  -10.4863    3.4866 C.3       1 <0>         0.1173
     27 C19         0.2908  -10.6114    3.6496 C.3       1 <0>        -0.1494
     28 C20        -0.0223  -11.8218    2.7307 C.3       1 <0>         0.0126
     29 C21         0.9775  -11.6393    1.5696 C.3       1 <0>         0.1032
     30 N4         -1.4045  -11.7560    2.2375 N.4       1 <0>        -0.6309
     31 H2         -0.9614    1.8832    0.0259 H         1 <0>         0.1351
     32 H3          1.1386    3.1621    0.0078 H         1 <0>         0.1382
     33 H4          3.3022    2.0058   -0.0191 H         1 <0>         0.1390
     34 H5         -0.9252   -0.5577    0.0083 H         1 <0>         0.1370
     35 H6          0.3378   -2.6701   -0.0147 H         1 <0>         0.1446
     36 H7          3.4681   -4.6401    1.8857 H         1 <0>         0.1562
     37 H8          3.7026   -7.6369    2.0953 H         1 <0>         0.1424
     38 H9          2.1842   -9.6761   -1.3168 H         1 <0>         0.1406
     39 H10         1.5885   -7.5436   -2.3747 H         1 <0>         0.1330
     40 H11         2.3360  -11.1969    4.1373 H         1 <0>         0.0931
     41 H12         2.1495   -9.4690    3.7075 H         1 <0>         0.1001
     42 H13         0.0241  -10.8271    4.6843 H         1 <0>         0.1167
     43 H14        -0.2141   -9.7122    3.2969 H         1 <0>         0.1010
     44 H15         0.1570  -12.7605    3.2549 H         1 <0>         0.1646
     45 H16         0.4897  -11.1392    0.7329 H         1 <0>         0.0867
     46 H17         1.3567  -12.6111    1.2533 H         1 <0>         0.1087
     47 H18        -1.5402  -10.8939    1.7312 H         1 <0>         0.4351
     48 H19        -1.5802  -12.5376    1.6241 H         1 <0>         0.4406
     49 H20         4.4674   -0.0923   -0.0405 H         1 <0>         0.4222
     50 H21        -2.0423  -11.7914    3.0185 H         1 <0>         0.4419
@<TRIPOS>BOND
     1    1    6 ar
     2    1    2 ar
     3    1   31 1
     4    2    3 ar
     5    2   32 1
     6    3    4 ar
     7    3   33 1
     8    4   10 1
     9    4    5 ar
    10    5    6 ar
    11    5    7 1
    12    6   34 1
    13    7    8 2
    14    7   35 1
    15    8    9 1
    16    8   12 1
    17    9   10 am
    18    9   11 2
    19   10   49 1
    20   12   20 1
    21   12   13 2
    22   13   14 1
    23   13   36 1
    24   14   19 ar
    25   14   15 ar
    26   15   16 ar
    27   15   37 1
    28   16   17 ar
    29   16   22 1
    30   17   18 ar
    31   17   38 1
    32   18   19 ar
    33   18   39 1
    34   19   20 1
    35   20   21 1
    36   22   23 2
    37   22   24 2
    38   22   25 1
    39   25   29 1
    40   25   26 1
    41   26   27 1
    42   26   40 1
    43   26   41 1
    44   27   28 1
    45   27   42 1
    46   27   43 1
    47   28   29 1
    48   28   30 1
    49   28   44 1
    50   29   45 1
    51   29   46 1
    52   30   47 1
    53   30   48 1
    54   30   50 1
@<TRIPOS>MOLECULE
CHEMBL323838__1
   50    54     0     0     0
SMALL
USER_CHARGES

@<TRIPOS>ATOM
      1 C1         -0.0164    1.3606    0.0095 C.ar      1 <0>        -0.1490
      2 C2          1.1695    2.0826    0.0021 C.ar      1 <0>        -0.0489
      3 C3          2.3855    1.4349   -0.0130 C.ar      1 <0>        -0.1667
      4 C4          2.4309    0.0432   -0.0210 C.ar      1 <0>         0.1975
      5 C5          1.2276   -0.6864   -0.0134 C.ar      1 <0>        -0.1413
      6 C6          0.0021   -0.0041    0.0020 C.ar      1 <0>        -0.0496
      7 C7          1.2573   -2.1036   -0.0208 C.2       1 <0>         0.0177
      8 C8          2.4756   -2.7493   -0.0355 C.2       1 <0>        -0.1519
      9 C9          3.7089   -1.9541   -0.0430 C.2       1 <0>         0.5459
     10 N1          3.6467   -0.6094   -0.0357 N.am      1 <0>        -0.6262
     11 O1          4.7915   -2.5121   -0.0560 O.2       1 <0>        -0.5149
     12 C10         2.5386   -4.2239   -0.0430 C.2       1 <0>         0.1399
     13 C11         3.0450   -4.9916    0.9562 C.2       1 <0>        -0.1472
     14 C12         2.9085   -6.3842    0.5342 C.ar      1 <0>        -0.1274
     15 C13         3.2403   -7.6099    1.1196 C.ar      1 <0>         0.0496
     16 C14         2.9779   -8.7729    0.4530 C.ar      1 <0>        -0.7074
     17 C15         2.3846   -8.7481   -0.8020 C.ar      1 <0>        -0.0224
     18 C16         2.0493   -7.5516   -1.3979 C.ar      1 <0>        -0.1368
     19 C17         2.3063   -6.3544   -0.7383 C.ar      1 <0>         0.1521
     20 N2          2.0877   -5.0327   -1.0611 N.pl3     1 <0>        -0.5806
     21 H1          1.6797   -4.7193   -1.8835 H         1 <0>         0.4210
     22 S1          3.3963  -10.3170    1.1915 S.o2      1 <0>         2.7079
     23 O2          3.5460  -11.2482    0.1286 O.2       1 <0>        -0.9416
     24 O3          4.4347  -10.0527    2.1247 O.2       1 <0>        -0.9352
     25 N3          2.0832  -10.8105    2.0716 N.pl3     1 <0>        -1.0101
     26 C18         1.8270  -10.4872    3.4828 C.3       1 <0>         0.1135
     27 C19         0.4797  -11.1360    3.8641 C.3       1 <0>        -0.1434
     28 C20        -0.2221  -11.3122    2.4916 C.3       1 <0>         0.0050
     29 C21         0.9745  -11.6416    1.5682 C.3       1 <0>         0.1068
     30 N4         -1.1822  -12.4233    2.5299 N.4       1 <0>        -0.6284
     31 H2         -0.9614    1.8832    0.0259 H         1 <0>         0.1350
     32 H3          1.1386    3.1621    0.0078 H         1 <0>         0.1381
     33 H4          3.3022    2.0058   -0.0191 H         1 <0>         0.1389
     34 H5         -0.9252   -0.5577    0.0083 H         1 <0>         0.1371
     35 H6          0.3378   -2.6701   -0.0147 H         1 <0>         0.1448
     36 H7          3.4681   -4.6401    1.8857 H         1 <0>         0.1561
     37 H8          3.7026   -7.6369    2.0953 H         1 <0>         0.1425
     38 H9          2.1842   -9.6761   -1.3168 H         1 <0>         0.1406
     39 H10         1.5885   -7.5436   -2.3747 H         1 <0>         0.1332
     40 H11         2.6235  -10.8928    4.1066 H         1 <0>         0.0970
     41 H12         1.7672   -9.4063    3.6105 H         1 <0>         0.0881
     42 H13         0.6388  -12.1023    4.3428 H         1 <0>         0.1023
     43 H14        -0.0976  -10.4747    4.5103 H         1 <0>         0.1142
     44 H15        -0.7087  -10.3879    2.1801 H         1 <0>         0.1618
     45 H16         0.7416  -11.3787    0.5363 H         1 <0>         0.1070
     46 H17         1.2286  -12.6989    1.6431 H         1 <0>         0.0940
     47 H18        -1.8975  -12.2263    3.2137 H         1 <0>         0.4419
     48 H19        -1.6067  -12.5324    1.6210 H         1 <0>         0.4406
     49 H20         4.4674   -0.0923   -0.0405 H         1 <0>         0.4221
     50 H21        -0.7019  -13.2743    2.7811 H         1 <0>         0.4366
@<TRIPOS>BOND
     1    1    6 ar
     2    1    2 ar
     3    1   31 1
     4    2    3 ar
     5    2   32 1
     6    3    4 ar
     7    3   33 1
     8    4   10 1
     9    4    5 ar
    10    5    6 ar
    11    5    7 1
    12    6   34 1
    13    7    8 2
    14    7   35 1
    15    8    9 1
    16    8   12 1
    17    9   10 am
    18    9   11 2
    19   10   49 1
    20   12   20 1
    21   12   13 2
    22   13   14 1
    23   13   36 1
    24   14   19 ar
    25   14   15 ar
    26   15   16 ar
    27   15   37 1
    28   16   17 ar
    29   16   22 1
    30   17   18 ar
    31   17   38 1
    32   18   19 ar
    33   18   39 1
    34   19   20 1
    35   20   21 1
    36   22   23 2
    37   22   24 2
    38   22   25 1
    39   25   29 1
    40   25   26 1
    41   26   27 1
    42   26   40 1
    43   26   41 1
    44   27   28 1
    45   27   42 1
    46   27   43 1
    47   28   29 1
    48   28   30 1
    49   28   44 1
    50   29   45 1
    51   29   46 1
    52   30   47 1
    53   30   48 1
    54   30   50 1
@<TRIPOS>MOLECULE
CHEMBL99832
   33    35     0     0     0
SMALL
USER_CHARGES

@<TRIPOS>ATOM
      1 C1          2.1758   -4.3843    3.5056 C.3       1 <0>         0.0452
      2 O1          1.4884   -3.9101    2.3460 O.3       1 <0>        -0.3063
      3 C2          1.3693   -2.5658    2.2072 C.ar      1 <0>         0.3567
      4 C3          0.7068   -2.0456    1.1040 C.ar      1 <0>        -0.2255
      5 C4          0.5896   -0.6713    0.9698 C.ar      1 <0>        -0.0098
      6 C5          1.1416    0.1392    1.9480 C.ar      1 <0>        -0.2486
      7 C6          1.7919   -0.4469    3.0272 C.ar      1 <0>         0.4111
      8 N1          1.8814   -1.7651    3.1276 N.ar      1 <0>        -0.5314
      9 N2          2.3503    0.3585    4.0150 N.pl3     1 <0>        -0.6001
     10 C7          2.9054   -0.2172    5.1465 C.2       1 <0>         0.2865
     11 N3          3.0764   -1.4962    5.4123 N.2       1 <0>        -0.5171
     12 C8          3.6247   -1.8919    6.5420 C.2       1 <0>         0.0845
     13 C9          4.0048   -0.9110    7.4190 C.2       1 <0>        -0.1917
     14 S1          3.5299    0.5496    6.5082 S.3       1 <0>         0.1177
     15 C10         4.6376   -1.0286    8.7492 C.ar      1 <0>         0.0119
     16 C11         4.9365   -2.2871    9.2746 C.ar      1 <0>        -0.1050
     17 C12         5.5272   -2.3898   10.5169 C.ar      1 <0>        -0.1110
     18 C13         5.8235   -1.2492   11.2420 C.ar      1 <0>        -0.1200
     19 C14         5.5299    0.0011   10.7271 C.ar      1 <0>        -0.1110
     20 C15         4.9445    0.1183    9.4835 C.ar      1 <0>        -0.1151
     21 H1          1.6567   -4.0422    4.4009 H         1 <0>         0.0618
     22 H2          2.1999   -5.4739    3.4935 H         1 <0>         0.0915
     23 H3          3.1952   -3.9983    3.5068 H         1 <0>         0.0612
     24 H4          0.2875   -2.7047    0.3582 H         1 <0>         0.1426
     25 H5          0.0792   -0.2414    0.1206 H         1 <0>         0.1468
     26 H6          1.0678    1.2140    1.8727 H         1 <0>         0.1384
     27 H7          2.3509    1.3229    3.9115 H         1 <0>         0.4374
     28 H8          3.7675   -2.9387    6.7663 H         1 <0>         0.1734
     29 H9          4.7054   -3.1782    8.7098 H         1 <0>         0.1260
     30 H10         5.7586   -3.3627   10.9247 H         1 <0>         0.1276
     31 H11         6.2856   -1.3352   12.2143 H         1 <0>         0.1249
     32 H12         5.7634    0.8874   11.2984 H         1 <0>         0.1265
     33 H13         4.7202    1.0950    9.0807 H         1 <0>         0.1212
@<TRIPOS>BOND
     1    1    2 1
     2    1   21 1
     3    1   22 1
     4    1   23 1
     5    2    3 1
     6    3    8 ar
     7    3    4 ar
     8    4    5 ar
     9    4   24 1
    10    5    6 ar
    11    5   25 1
    12    6    7 ar
    13    6   26 1
    14    7    8 ar
    15    7    9 1
    16    9   10 1
    17    9   27 1
    18   10   14 1
    19   10   11 2
    20   11   12 1
    21   12   13 2
    22   12   28 1
    23   13   14 1
    24   13   15 1
    25   15   20 ar
    26   15   16 ar
    27   16   17 ar
    28   16   29 1
    29   17   18 ar
    30   17   30 1
    31   18   19 ar
    32   18   31 1
    33   19   20 ar
    34   19   32 1
    35   20   33 1
@<TRIPOS>MOLECULE
CHEMBL493877
   73    77     0     0     0
SMALL
USER_CHARGES

@<TRIPOS>ATOM
      1 C1          0.3584   -0.8752    1.1747 C.3       1 <0>        -0.1393
      2 C2         -0.0090    0.0171   -0.0127 C.3       1 <0>        -0.0289
      3 C3         -1.5215   -0.0316   -0.2383 C.3       1 <0>        -0.1390
      4 C4          0.4169    1.4570    0.2805 C.3       1 <0>        -0.1459
      5 C5          0.6993   -0.4746   -1.2486 C.ar      1 <0>        -0.0829
      6 C6          1.5809    0.3566   -1.9152 C.ar      1 <0>        -0.1010
      7 C7          2.2317   -0.0909   -3.0482 C.ar      1 <0>        -0.1161
      8 C8          2.0002   -1.3774   -3.5177 C.ar      1 <0>         0.1410
      9 C9          1.1144   -2.2097   -2.8456 C.ar      1 <0>        -0.1429
     10 C10         0.4706   -1.7578   -1.7105 C.ar      1 <0>        -0.0956
     11 N1          2.6571   -1.8334   -4.6649 N.am      1 <0>        -0.6706
     12 C11         3.9081   -1.4124   -4.9374 C.2       1 <0>         0.5607
     13 O1          4.5015   -0.7133   -4.1393 O.2       1 <0>        -0.5097
     14 C12         4.5586   -1.8006   -6.2067 C.ar      1 <0>        -0.1444
     15 C13         3.8754   -2.5977   -7.1244 C.ar      1 <0>        -0.0830
     16 C14         4.4887   -2.9563   -8.3067 C.ar      1 <0>        -0.1284
     17 C15         5.7745   -2.5284   -8.5762 C.ar      1 <0>        -0.0826
     18 C16         6.4626   -1.7355   -7.6676 C.ar      1 <0>        -0.0871
     19 C17         5.8578   -1.3631   -6.4892 C.ar      1 <0>        -0.0013
     20 C18         6.5578   -0.4895   -5.4804 C.3       1 <0>        -0.0797
     21 C19         8.0603   -0.4665   -5.7627 C.3       1 <0>         0.0452
     22 N2          8.2631   -0.1547   -7.1865 N.3       1 <0>        -0.5227
     23 C20         7.8642   -1.3037   -8.0121 C.3       1 <0>         0.0922
     24 C21         9.6588    0.2206   -7.4496 C.3       1 <0>         0.0877
     25 C22         9.7770    0.7657   -8.8495 C.ar      1 <0>        -0.0169
     26 C23        10.2377   -0.0168   -9.8711 C.ar      1 <0>        -0.1763
     27 C24        10.3383    0.5072  -11.1568 C.ar      1 <0>         0.1277
     28 N3         10.0008    1.7458  -11.4254 N.ar      1 <0>        -0.4722
     29 C25         9.5431    2.5638  -10.4723 C.ar      1 <0>         0.1394
     30 C26         9.4108    2.0919   -9.1419 C.ar      1 <0>        -0.0725
     31 C27         8.9249    2.9516   -8.1426 C.ar      1 <0>        -0.1588
     32 C28         8.5799    4.2318   -8.4631 C.ar      1 <0>         0.1200
     33 C29         8.7048    4.6993   -9.7806 C.ar      1 <0>         0.1408
     34 C30         9.1841    3.8900  -10.7687 C.ar      1 <0>        -0.1754
     35 O2          8.3538    5.9789  -10.0737 O.3       1 <0>        -0.3018
     36 C31         8.5029    6.3976  -11.4318 C.3       1 <0>         0.0222
     37 O3          8.1097    5.0636   -7.4961 O.3       1 <0>        -0.3026
     38 C32         8.0052    4.5290   -6.1750 C.3       1 <0>         0.0239
     39 H1          0.0550   -1.9011    0.9658 H         1 <0>         0.0564
     40 H2          1.4360   -0.8406    1.3354 H         1 <0>         0.0566
     41 H3         -0.1539   -0.5196    2.0686 H         1 <0>         0.0588
     42 H4         -2.0338    0.3240    0.6557 H         1 <0>         0.0588
     43 H5         -1.7833    0.6041   -1.0841 H         1 <0>         0.0564
     44 H6         -1.8249   -1.0574   -0.4471 H         1 <0>         0.0565
     45 H7          1.4944    1.4917    0.4412 H         1 <0>         0.0591
     46 H8          0.1551    2.0927   -0.5654 H         1 <0>         0.0589
     47 H9         -0.0954    1.8126    1.1745 H         1 <0>         0.0588
     48 H10         1.7605    1.3568   -1.5495 H         1 <0>         0.1298
     49 H11         2.9195    0.5590   -3.5687 H         1 <0>         0.1337
     50 H12         0.9319   -3.2105   -3.2084 H         1 <0>         0.1239
     51 H13        -0.2152   -2.4059   -1.1851 H         1 <0>         0.1248
     52 H14         2.2124   -2.4528   -5.2646 H         1 <0>         0.4088
     53 H15         2.8712   -2.9328   -6.9104 H         1 <0>         0.1255
     54 H16         3.9637   -3.5722   -9.0219 H         1 <0>         0.1320
     55 H17         6.2494   -2.8140   -9.5032 H         1 <0>         0.1285
     56 H18         6.1623    0.5243   -5.5434 H         1 <0>         0.0897
     57 H19         6.3838   -0.8826   -4.4787 H         1 <0>         0.1096
     58 H20         8.5366    0.2980   -5.1488 H         1 <0>         0.0832
     59 H21         8.4903   -1.4422   -5.5366 H         1 <0>         0.0428
     60 H22         8.5481   -2.1360   -7.8460 H         1 <0>         0.0544
     61 H23         7.9027   -1.0111   -9.0614 H         1 <0>         0.0906
     62 H24         9.9709    0.9826   -6.7354 H         1 <0>         0.0921
     63 H25        10.2967   -0.6572   -7.3464 H         1 <0>         0.0551
     64 H26        10.5237   -1.0407   -9.6809 H         1 <0>         0.1337
     65 H27        10.7043   -0.1227  -11.9541 H         1 <0>         0.1585
     66 H28         8.8247    2.6007   -7.1262 H         1 <0>         0.1474
     67 H29         9.2752    4.2632  -11.7781 H         1 <0>         0.1492
     68 H30         9.5478    6.3054  -11.7278 H         1 <0>         0.0594
     69 H31         7.8862    5.7700  -12.0753 H         1 <0>         0.0592
     70 H32         8.1882    7.4367  -11.5283 H         1 <0>         0.1047
     71 H33         7.3281    3.6749   -6.1812 H         1 <0>         0.0603
     72 H34         8.9898    4.2097   -5.8333 H         1 <0>         0.0558
     73 H35         7.6180    5.2947   -5.5027 H         1 <0>         0.1035
@<TRIPOS>BOND
     1    1    2 1
     2    1   39 1
     3    1   40 1
     4    1   41 1
     5    2    3 1
     6    2    4 1
     7    2    5 1
     8    3   42 1
     9    3   43 1
    10    3   44 1
    11    4   45 1
    12    4   46 1
    13    4   47 1
    14    5   10 ar
    15    5    6 ar
    16    6    7 ar
    17    6   48 1
    18    7    8 ar
    19    7   49 1
    20    8    9 ar
    21    8   11 1
    22    9   10 ar
    23    9   50 1
    24   10   51 1
    25   11   12 am
    26   11   52 1
    27   12   13 2
    28   12   14 1
    29   14   19 ar
    30   14   15 ar
    31   15   16 ar
    32   15   53 1
    33   16   17 ar
    34   16   54 1
    35   17   18 ar
    36   17   55 1
    37   18   23 1
    38   18   19 ar
    39   19   20 1
    40   20   21 1
    41   20   56 1
    42   20   57 1
    43   21   22 1
    44   21   58 1
    45   21   59 1
    46   22   23 1
    47   22   24 1
    48   23   60 1
    49   23   61 1
    50   24   25 1
    51   24   62 1
    52   24   63 1
    53   25   30 ar
    54   25   26 ar
    55   26   27 ar
    56   26   64 1
    57   27   28 ar
    58   27   65 1
    59   28   29 ar
    60   29   34 ar
    61   29   30 ar
    62   30   31 ar
    63   31   32 ar
    64   31   66 1
    65   32   33 ar
    66   32   37 1
    67   33   34 ar
    68   33   35 1
    69   34   67 1
    70   35   36 1
    71   36   68 1
    72   36   69 1
    73   36   70 1
    74   37   38 1
    75   38   71 1
    76   38   72 1
    77   38   73 1
@<TRIPOS>MOLECULE
CHEMBL24133
   55    58     0     0     0
SMALL
USER_CHARGES

@<TRIPOS>ATOM
      1 C1         -0.2874    1.4785   -0.1530 C.3       1 <0>         0.0197
      2 O1         -0.5676    0.0892   -0.3365 O.3       1 <0>        -0.3027
      3 C2         -0.0342   -0.5082   -1.4354 C.ar      1 <0>         0.1103
      4 C3          0.7339    0.2234   -2.2962 C.ar      1 <0>        -0.1412
      5 C4          1.2835   -0.3907   -3.4278 C.ar      1 <0>        -0.1780
      6 C5          1.0408   -1.7649   -3.6740 C.ar      1 <0>         0.2014
      7 C6          0.2505   -2.4955   -2.7785 C.ar      1 <0>        -0.1788
      8 C7         -0.2740   -1.8694   -1.6694 C.ar      1 <0>         0.1612
      9 O2         -1.0366   -2.5772   -0.7959 O.3       1 <0>        -0.2939
     10 C8         -1.2446   -3.9602   -1.0892 C.3       1 <0>         0.0562
     11 C9         -2.1206   -4.5859   -0.0021 C.3       1 <0>        -0.1487
     12 C10        -2.3433   -6.0667   -0.3161 C.3       1 <0>        -0.0018
     13 N1         -3.1844   -6.6675    0.7277 N.4       1 <0>        -0.3936
     14 C11        -4.5647   -6.1245    0.6488 C.3       1 <0>        -0.0091
     15 C12        -5.4121   -7.2043    1.3675 C.3       1 <0>        -0.1458
     16 C13        -4.7373   -8.5234    0.9265 C.3       1 <0>        -0.1456
     17 C14        -3.3110   -8.1242    0.5050 C.3       1 <0>        -0.0082
     18 N2          1.5799   -2.3294   -4.7660 N.ar      1 <0>        -0.5428
     19 C15         2.3166   -1.6193   -5.5869 C.ar      1 <0>         0.3486
     20 N3          2.5705   -0.3342   -5.3976 N.ar      1 <0>        -0.5774
     21 C16         2.0864    0.3213   -4.3506 C.ar      1 <0>         0.4677
     22 N4          2.3586    1.6617   -4.1662 N.pl3     1 <0>        -0.6287
     23 C17         3.0386    2.3804   -5.1563 C.ar      1 <0>         0.1256
     24 C18         3.0990    1.8904   -6.4538 C.ar      1 <0>        -0.0966
     25 C19         3.7702    2.6018   -7.4294 C.ar      1 <0>        -0.0931
     26 C20         4.3827    3.8023   -7.1153 C.ar      1 <0>        -0.0275
     27 C21         4.3254    4.2944   -5.8232 C.ar      1 <0>        -0.1215
     28 C22         3.6501    3.5897   -4.8435 C.ar      1 <0>         0.0764
     29 F1          3.5893    4.0726   -3.5832 F         1 <0>        -0.1324
     30 Cl1         5.2251    4.6926   -8.3447 Cl        1 <0>        -0.0499
     31 H1          0.7898    1.6242   -0.0719 H         1 <0>         0.0602
     32 H2         -0.6670    2.0414   -1.0057 H         1 <0>         0.0602
     33 H3         -0.7712    1.8294    0.7585 H         1 <0>         0.1099
     34 H4          0.9160    1.2706   -2.1047 H         1 <0>         0.1422
     35 H5          0.0573   -3.5436   -2.9537 H         1 <0>         0.1537
     36 H6         -1.7402   -4.0562   -2.0552 H         1 <0>         0.0781
     37 H7         -0.2834   -4.4733   -1.1214 H         1 <0>         0.0784
     38 H8         -1.6250   -4.4899    0.9640 H         1 <0>         0.1001
     39 H9         -3.0817   -4.0728    0.0301 H         1 <0>         0.0995
     40 H10        -2.8390   -6.1627   -1.2821 H         1 <0>         0.1340
     41 H11        -1.3822   -6.5798   -0.3483 H         1 <0>         0.1348
     42 H12        -4.6332   -5.1706    1.1718 H         1 <0>         0.1364
     43 H13        -4.8775   -6.0182   -0.3899 H         1 <0>         0.1348
     44 H14        -5.3534   -7.0839    2.4492 H         1 <0>         0.0985
     45 H15        -6.4480   -7.1693    1.0301 H         1 <0>         0.1171
     46 H16        -4.7030   -9.2273    1.7580 H         1 <0>         0.1056
     47 H17        -5.2731   -8.9589    0.0830 H         1 <0>         0.1043
     48 H18        -3.1575   -8.3534   -0.5495 H         1 <0>         0.1316
     49 H19        -2.5809   -8.6577    1.1137 H         1 <0>         0.1332
     50 H20         2.7349   -2.1051   -6.4560 H         1 <0>         0.2036
     51 H21         2.0787    2.1057   -3.3505 H         1 <0>         0.4240
     52 H22         2.6218    0.9535   -6.7003 H         1 <0>         0.1821
     53 H23         3.8174    2.2202   -8.4386 H         1 <0>         0.1471
     54 H24         4.8049    5.2312   -5.5807 H         1 <0>         0.1525
     55 H25        -2.7903   -6.4878    1.6390 H         1 <0>         0.4283
@<TRIPOS>BOND
     1    1    2 1
     2    1   31 1
     3    1   32 1
     4    1   33 1
     5    2    3 1
     6    3    8 ar
     7    3    4 ar
     8    4    5 ar
     9    4   34 1
    10    5   21 ar
    11    5    6 ar
    12    6    7 ar
    13    6   18 ar
    14    7    8 ar
    15    7   35 1
    16    8    9 1
    17    9   10 1
    18   10   11 1
    19   10   36 1
    20   10   37 1
    21   11   12 1
    22   11   38 1
    23   11   39 1
    24   12   13 1
    25   12   40 1
    26   12   41 1
    27   13   17 1
    28   13   14 1
    29   13   55 1
    30   14   15 1
    31   14   42 1
    32   14   43 1
    33   15   16 1
    34   15   44 1
    35   15   45 1
    36   16   17 1
    37   16   46 1
    38   16   47 1
    39   17   48 1
    40   17   49 1
    41   18   19 ar
    42   19   20 ar
    43   19   50 1
    44   20   21 ar
    45   21   22 1
    46   22   23 1
    47   22   51 1
    48   23   28 ar
    49   23   24 ar
    50   24   25 ar
    51   24   52 1
    52   25   26 ar
    53   25   53 1
    54   26   27 ar
    55   26   30 1
    56   27   28 ar
    57   27   54 1
    58   28   29 1
@<TRIPOS>MOLECULE
CHEMBL469467
   55    59     0     0     0
SMALL
USER_CHARGES

@<TRIPOS>ATOM
      1 C1         -1.1861    1.0255   -0.4168 C.3       1 <0>        -0.1156
      2 C2         -1.7125   -0.2505    0.1881 C.ar      1 <0>        -0.0661
      3 C3         -2.9523   -0.7336   -0.1891 C.ar      1 <0>        -0.1347
      4 C4         -3.4386   -1.9041    0.3632 C.ar      1 <0>        -0.0949
      5 C5         -2.6871   -2.5947    1.2940 C.ar      1 <0>        -0.1252
      6 C6         -1.4421   -2.1123    1.6748 C.ar      1 <0>         0.1635
      7 C7         -0.9541   -0.9390    1.1142 C.ar      1 <0>        -0.1473
      8 N1         -0.6785   -2.8093    2.6178 N.am      1 <0>        -0.6809
      9 C8         -0.7427   -4.1543    2.6757 C.2       1 <0>         0.7037
     10 O1         -1.3900   -4.7682    1.8494 O.2       1 <0>        -0.5493
     11 N2         -0.0895   -4.8189    3.6494 N.am      1 <0>        -0.6829
     12 C9         -0.0661   -6.2184    3.6472 C.ar      1 <0>         0.1700
     13 C10        -0.0546   -6.9099    2.4421 C.ar      1 <0>        -0.1148
     14 C11        -0.0310   -8.2886    2.4371 C.ar      1 <0>        -0.0774
     15 C12        -0.0187   -8.9888    3.6428 C.ar      1 <0>        -0.0409
     16 C13        -0.0303   -8.2924    4.8507 C.ar      1 <0>        -0.0921
     17 C14        -0.0485   -6.9136    4.8501 C.ar      1 <0>        -0.1415
     18 C15         0.0061  -10.4714    3.6404 C.2       1 <0>        -0.2559
     19 C16        -1.0764  -11.2028    3.1230 C.2       1 <0>         0.2354
     20 N3         -1.0465  -12.5165    3.1241 N.2       1 <0>        -0.5025
     21 C17         0.0019  -13.1891    3.6116 C.2       1 <0>         0.3158
     22 C18         0.2718  -14.5589    3.7253 C.2       1 <0>        -0.2155
     23 C19         1.5338  -14.6848    4.3189 C.2       1 <0>         0.1210
     24 N4          2.0111  -13.4881    4.5557 N.2       1 <0>        -0.3265
     25 N5          1.0854  -12.5297    4.1288 N.pl3     1 <0>        -0.3437
     26 C20         1.1041  -11.1609    4.1452 C.2       1 <0>         0.5019
     27 N6          2.1852  -10.4804    4.6556 N.pl3     1 <0>        -0.8245
     28 C21        -0.6129  -15.6672    3.2981 C.ar      1 <0>         0.0113
     29 C22        -1.9532  -15.6822    3.6846 C.ar      1 <0>        -0.0973
     30 C23        -2.7723  -16.7175    3.2835 C.ar      1 <0>        -0.1185
     31 C24        -2.2669  -17.7394    2.4997 C.ar      1 <0>        -0.1254
     32 C25        -0.9384  -17.7305    2.1135 C.ar      1 <0>        -0.1193
     33 C26        -0.1107  -16.6975    2.5030 C.ar      1 <0>        -0.1138
     34 H1         -0.6230    0.7937   -1.3208 H         1 <0>         0.0723
     35 H2         -2.0207    1.6806   -0.6665 H         1 <0>         0.0691
     36 H3         -0.5337    1.5250    0.2995 H         1 <0>         0.0665
     37 H4         -3.5419   -0.1953   -0.9163 H         1 <0>         0.1240
     38 H5         -4.4073   -2.2787    0.0669 H         1 <0>         0.1270
     39 H6         -3.0677   -3.5088    1.7254 H         1 <0>         0.1357
     40 H7          0.0157   -0.5633    1.4053 H         1 <0>         0.1246
     41 H8         -0.1030   -2.3245    3.2299 H         1 <0>         0.4086
     42 H9          0.3643   -4.3273    4.3518 H         1 <0>         0.4095
     43 H10        -0.0645   -6.3670    1.5085 H         1 <0>         0.1400
     44 H11        -0.0225   -8.8256    1.5001 H         1 <0>         0.1304
     45 H12        -0.0212   -8.8324    5.7860 H         1 <0>         0.1273
     46 H13        -0.0534   -6.3737    5.7854 H         1 <0>         0.1294
     47 H14        -1.9353  -10.6839    2.7237 H         1 <0>         0.1786
     48 H15         2.0319  -15.6161    4.5449 H         1 <0>         0.1997
     49 H16         2.1870   -9.5105    4.6658 H         1 <0>         0.4244
     50 H17         2.9458  -10.9706    5.0051 H         1 <0>         0.4171
     51 H18        -2.3488  -14.8852    4.2967 H         1 <0>         0.1190
     52 H19        -3.8101  -16.7304    3.5823 H         1 <0>         0.1207
     53 H20        -2.9120  -18.5476    2.1882 H         1 <0>         0.1193
     54 H21        -0.5496  -18.5312    1.5019 H         1 <0>         0.1210
     55 H22         0.9249  -16.6889    2.1967 H         1 <0>         0.1198
@<TRIPOS>BOND
     1    1    2 1
     2    1   34 1
     3    1   35 1
     4    1   36 1
     5    2    7 ar
     6    2    3 ar
     7    3    4 ar
     8    3   37 1
     9    4    5 ar
    10    4   38 1
    11    5    6 ar
    12    5   39 1
    13    6    7 ar
    14    6    8 1
    15    7   40 1
    16    8    9 am
    17    8   41 1
    18    9   10 2
    19    9   11 am
    20   11   12 1
    21   11   42 1
    22   12   17 ar
    23   12   13 ar
    24   13   14 ar
    25   13   43 1
    26   14   15 ar
    27   14   44 1
    28   15   16 ar
    29   15   18 1
    30   16   17 ar
    31   16   45 1
    32   17   46 1
    33   18   26 2
    34   18   19 1
    35   19   20 2
    36   19   47 1
    37   20   21 1
    38   21   25 1
    39   21   22 2
    40   22   23 1
    41   22   28 1
    42   23   24 2
    43   23   48 1
    44   24   25 1
    45   25   26 1
    46   26   27 1
    47   27   49 1
    48   27   50 1
    49   28   33 ar
    50   28   29 ar
    51   29   30 ar
    52   29   51 1
    53   30   31 ar
    54   30   52 1
    55   31   32 ar
    56   31   53 1
    57   32   33 ar
    58   32   54 1
    59   33   55 1
@<TRIPOS>MOLECULE
CHEMBL494072
   61    65     0     0     0
SMALL
USER_CHARGES

@<TRIPOS>ATOM
      1 C1         -0.0184    1.5028    0.0103 C.3       1 <0>        -0.1256
      2 C2          0.0021   -0.0041    0.0020 C.ar      1 <0>        -0.0426
      3 C3          0.0057   -0.6865   -1.1992 C.ar      1 <0>        -0.1243
      4 C4          0.0244   -2.0665   -1.2155 C.ar      1 <0>        -0.0800
      5 C5          0.0393   -2.7811   -0.0156 C.ar      1 <0>        -0.1401
      6 C6          0.0357   -2.0972    1.1986 C.ar      1 <0>        -0.0408
      7 C7          0.0230   -0.7059    1.2067 C.ar      1 <0>        -0.0532
      8 C8          0.0258    0.0296    2.4952 C.ar      1 <0>        -0.0745
      9 C9          0.9442    1.0714    2.7002 C.ar      1 <0>        -0.0507
     10 C10         0.9685    1.7618    3.8710 C.ar      1 <0>        -0.1209
     11 C11         0.0659    1.4351    4.8952 C.ar      1 <0>         0.2174
     12 C12        -0.8667    0.3834    4.6979 C.ar      1 <0>        -0.2138
     13 C13        -0.8806   -0.3130    3.4827 C.ar      1 <0>        -0.0366
     14 C14        -1.7607    0.0771    5.7416 C.ar      1 <0>         0.2447
     15 N1         -1.6924    0.7789    6.8533 N.ar      1 <0>        -0.5579
     16 C15        -0.8042    1.7595    7.0044 C.ar      1 <0>         0.5733
     17 N2          0.0573    2.0909    6.0623 N.ar      1 <0>        -0.5735
     18 N3         -0.7844    2.4588    8.1975 N.pl3     1 <0>        -0.6968
     19 C16        -1.7283    2.1151    9.2638 C.3       1 <0>         0.1400
     20 C17        -1.4964    3.0330   10.4657 C.3       1 <0>         0.0428
     21 N4         -2.4430    2.6883   11.5349 N.3       1 <0>        -0.5320
     22 C18        -3.8244    2.9911   11.1334 C.3       1 <0>         0.0117
     23 C19        -4.7802    2.5625   12.2499 C.3       1 <0>         0.0630
     24 O1         -4.4126    3.2218   13.4646 O.3       1 <0>        -0.3850
     25 C20        -3.0733    2.9485   13.8854 C.3       1 <0>         0.0630
     26 C21        -2.1002    3.3811   12.7855 C.3       1 <0>         0.0182
     27 C22         0.0583   -4.2595   -0.0336 C.2       1 <0>         0.5645
     28 O2          0.0712   -4.8798    1.0116 O.2       1 <0>        -0.5318
     29 N5          0.0613   -4.9191   -1.2088 N.am      1 <0>        -0.6994
     30 C23         0.0801   -6.3839   -1.2266 C.3       1 <0>         0.0773
     31 C24         1.0206   -7.0663   -2.2219 C.3       1 <0>        -0.1921
     32 C25        -0.4903   -7.0828   -2.4623 C.3       1 <0>        -0.1879
     33 H1          1.0042    1.8801    0.0026 H         1 <0>         0.0782
     34 H2         -0.5455    1.8639   -0.8728 H         1 <0>         0.0717
     35 H3         -0.5286    1.8543    0.9071 H         1 <0>         0.0748
     36 H4         -0.0065   -0.1378   -2.1294 H         1 <0>         0.1329
     37 H5          0.0271   -2.5946   -2.1576 H         1 <0>         0.1258
     38 H6          0.0472   -2.6448    2.1294 H         1 <0>         0.1395
     39 H7          1.6417    1.3278    1.9165 H         1 <0>         0.1341
     40 H8          1.6816    2.5604    4.0130 H         1 <0>         0.1394
     41 H9         -1.5889   -1.1119    3.3198 H         1 <0>         0.1367
     42 H10        -2.4864   -0.7154    5.6324 H         1 <0>         0.1789
     43 H11        -0.1454    3.1768    8.3282 H         1 <0>         0.4142
     44 H12        -2.7483    2.2422    8.9010 H         1 <0>         0.0686
     45 H13        -1.5759    1.0783    9.5637 H         1 <0>         0.0787
     46 H14        -0.4764    2.9058   10.8285 H         1 <0>         0.0845
     47 H15        -1.6488    4.0698   10.1658 H         1 <0>         0.0436
     48 H16        -3.9261    4.0622   10.9584 H         1 <0>         0.0453
     49 H17        -4.0652    2.4479   10.2196 H         1 <0>         0.0912
     50 H18        -5.8003    2.8370   11.9811 H         1 <0>         0.0999
     51 H19        -4.7176    1.4831   12.3882 H         1 <0>         0.0622
     52 H20        -2.8589    3.5022   14.7995 H         1 <0>         0.1002
     53 H21        -2.9610    1.8804   14.0713 H         1 <0>         0.0619
     54 H22        -1.0824    3.1225   13.0776 H         1 <0>         0.0888
     55 H23        -2.1744    4.4584   12.6369 H         1 <0>         0.0455
     56 H24         0.0509   -4.4241   -2.0429 H         1 <0>         0.4012
     57 H25        -0.0685   -6.8677   -0.2612 H         1 <0>         0.1400
     58 H26         1.6253   -6.4254   -2.8636 H         1 <0>         0.0976
     59 H27         1.4911   -7.9992   -1.9115 H         1 <0>         0.1045
     60 H28        -1.0139   -8.0266   -2.3100 H         1 <0>         0.1058
     61 H29        -0.8796   -6.4528   -3.2621 H         1 <0>         0.0979
@<TRIPOS>BOND
     1    1    2 1
     2    1   33 1
     3    1   34 1
     4    1   35 1
     5    2    7 ar
     6    2    3 ar
     7    3    4 ar
     8    3   36 1
     9    4    5 ar
    10    4   37 1
    11    5    6 ar
    12    5   27 1
    13    6    7 ar
    14    6   38 1
    15    7    8 1
    16    8   13 ar
    17    8    9 ar
    18    9   10 ar
    19    9   39 1
    20   10   11 ar
    21   10   40 1
    22   11   17 ar
    23   11   12 ar
    24   12   13 ar
    25   12   14 ar
    26   13   41 1
    27   14   15 ar
    28   14   42 1
    29   15   16 ar
    30   16   17 ar
    31   16   18 1
    32   18   19 1
    33   18   43 1
    34   19   20 1
    35   19   44 1
    36   19   45 1
    37   20   21 1
    38   20   46 1
    39   20   47 1
    40   21   26 1
    41   21   22 1
    42   22   23 1
    43   22   48 1
    44   22   49 1
    45   23   24 1
    46   23   50 1
    47   23   51 1
    48   24   25 1
    49   25   26 1
    50   25   52 1
    51   25   53 1
    52   26   54 1
    53   26   55 1
    54   27   28 2
    55   27   29 am
    56   29   30 1
    57   29   56 1
    58   30   32 1
    59   30   31 1
    60   30   57 1
    61   31   32 1
    62   31   58 1
    63   31   59 1
    64   32   60 1
    65   32   61 1
@<TRIPOS>MOLECULE
CHEMBL494072__1
   62    66     0     0     0
SMALL
USER_CHARGES

@<TRIPOS>ATOM
      1 C1         -0.0184    1.5028    0.0103 C.3       1 <0>        -0.1264
      2 C2          0.0021   -0.0041    0.0020 C.ar      1 <0>        -0.0405
      3 C3          0.0057   -0.6865   -1.1992 C.ar      1 <0>        -0.1229
      4 C4          0.0244   -2.0665   -1.2155 C.ar      1 <0>        -0.0746
      5 C5          0.0393   -2.7811   -0.0156 C.ar      1 <0>        -0.1384
      6 C6          0.0357   -2.0972    1.1986 C.ar      1 <0>        -0.0389
      7 C7          0.0230   -0.7059    1.2067 C.ar      1 <0>        -0.0650
      8 C8          0.0258    0.0296    2.4952 C.ar      1 <0>        -0.0532
      9 C9          0.9442    1.0714    2.7002 C.ar      1 <0>        -0.0466
     10 C10         0.9685    1.7618    3.8710 C.ar      1 <0>        -0.1174
     11 C11         0.0659    1.4351    4.8952 C.ar      1 <0>         0.2103
     12 C12        -0.8667    0.3834    4.6979 C.ar      1 <0>        -0.1996
     13 C13        -0.8806   -0.3130    3.4827 C.ar      1 <0>        -0.0463
     14 C14        -1.7607    0.0771    5.7416 C.ar      1 <0>         0.2475
     15 N1         -1.6924    0.7789    6.8533 N.ar      1 <0>        -0.5687
     16 C15        -0.8042    1.7595    7.0044 C.ar      1 <0>         0.5615
     17 N2          0.0573    2.0909    6.0623 N.ar      1 <0>        -0.5574
     18 N3         -0.7844    2.4588    8.1975 N.pl3     1 <0>        -0.7042
     19 C16        -1.7283    2.1151    9.2638 C.3       1 <0>         0.1190
     20 C17        -1.4964    3.0330   10.4657 C.3       1 <0>        -0.0229
     21 N4         -2.4430    2.6883   11.5349 N.4       1 <0>        -0.3804
     22 C18        -3.8130    2.9743   11.0874 C.3       1 <0>        -0.0511
     23 C19        -4.7973    2.6141   12.2030 C.3       1 <0>         0.0368
     24 O1         -4.4648    3.3528   13.3818 O.3       1 <0>        -0.3561
     25 C20        -3.1302    3.1260   13.8438 C.3       1 <0>         0.0360
     26 C21        -2.1429    3.4870   12.7312 C.3       1 <0>        -0.0426
     27 C22         0.0583   -4.2595   -0.0336 C.2       1 <0>         0.5641
     28 O2          0.0712   -4.8798    1.0116 O.2       1 <0>        -0.5333
     29 N5          0.0613   -4.9191   -1.2088 N.am      1 <0>        -0.6977
     30 C23         0.0801   -6.3839   -1.2266 C.3       1 <0>         0.0751
     31 C24         1.0206   -7.0663   -2.2219 C.3       1 <0>        -0.1909
     32 C25        -0.4903   -7.0828   -2.4623 C.3       1 <0>        -0.1868
     33 H1          1.0042    1.8801    0.0026 H         1 <0>         0.0795
     34 H2         -0.5455    1.8639   -0.8728 H         1 <0>         0.0745
     35 H3         -0.5286    1.8543    0.9071 H         1 <0>         0.0722
     36 H4         -0.0065   -0.1378   -2.1294 H         1 <0>         0.1355
     37 H5          0.0271   -2.5946   -2.1576 H         1 <0>         0.1285
     38 H6          0.0472   -2.6448    2.1294 H         1 <0>         0.1393
     39 H7          1.6417    1.3278    1.9165 H         1 <0>         0.1398
     40 H8          1.6816    2.5604    4.0130 H         1 <0>         0.1432
     41 H9         -1.5889   -1.1119    3.3198 H         1 <0>         0.1411
     42 H10        -2.4864   -0.7154    5.6324 H         1 <0>         0.1828
     43 H11        -0.1454    3.1768    8.3282 H         1 <0>         0.4204
     44 H12        -2.7483    2.2422    8.9010 H         1 <0>         0.0869
     45 H13        -1.5759    1.0783    9.5637 H         1 <0>         0.0875
     46 H14        -0.4764    2.9058   10.8285 H         1 <0>         0.1408
     47 H15        -1.6488    4.0698   10.1658 H         1 <0>         0.1388
     48 H16        -3.9043    4.0342   10.8501 H         1 <0>         0.1412
     49 H17        -4.0367    2.3822   10.2000 H         1 <0>         0.1458
     50 H18        -5.8105    2.8655   11.8896 H         1 <0>         0.1433
     51 H19        -4.7348    1.5463   12.4128 H         1 <0>         0.0830
     52 H20        -2.9370    3.7478   14.7179 H         1 <0>         0.1434
     53 H21        -3.0107    2.0757   14.1098 H         1 <0>         0.0826
     54 H22        -1.1267    3.2756   13.0641 H         1 <0>         0.1445
     55 H23        -2.2347    4.5468   12.4933 H         1 <0>         0.1407
     56 H24         0.0509   -4.4241   -2.0429 H         1 <0>         0.4018
     57 H25        -0.0685   -6.8677   -0.2612 H         1 <0>         0.1401
     58 H26         1.6253   -6.4254   -2.8636 H         1 <0>         0.0982
     59 H27         1.4911   -7.9992   -1.9115 H         1 <0>         0.1054
     60 H28        -1.0139   -8.0266   -2.3100 H         1 <0>         0.1067
     61 H29        -0.8796   -6.4528   -3.2621 H         1 <0>         0.0985
     62 H30        -2.3588    1.7073   11.7555 H         1 <0>         0.4260
@<TRIPOS>BOND
     1    1    2 1
     2    1   33 1
     3    1   34 1
     4    1   35 1
     5    2    7 ar
     6    2    3 ar
     7    3    4 ar
     8    3   36 1
     9    4    5 ar
    10    4   37 1
    11    5    6 ar
    12    5   27 1
    13    6    7 ar
    14    6   38 1
    15    7    8 1
    16    8   13 ar
    17    8    9 ar
    18    9   10 ar
    19    9   39 1
    20   10   11 ar
    21   10   40 1
    22   11   17 ar
    23   11   12 ar
    24   12   13 ar
    25   12   14 ar
    26   13   41 1
    27   14   15 ar
    28   14   42 1
    29   15   16 ar
    30   16   17 ar
    31   16   18 1
    32   18   19 1
    33   18   43 1
    34   19   20 1
    35   19   44 1
    36   19   45 1
    37   20   21 1
    38   20   46 1
    39   20   47 1
    40   21   26 1
    41   21   22 1
    42   21   62 1
    43   22   23 1
    44   22   48 1
    45   22   49 1
    46   23   24 1
    47   23   50 1
    48   23   51 1
    49   24   25 1
    50   25   26 1
    51   25   52 1
    52   25   53 1
    53   26   54 1
    54   26   55 1
    55   27   28 2
    56   27   29 am
    57   29   30 1
    58   29   56 1
    59   30   32 1
    60   30   31 1
    61   30   57 1
    62   31   32 1
    63   31   58 1
    64   31   59 1
    65   32   60 1
    66   32   61 1
@<TRIPOS>MOLECULE
CHEMBL24979
   58    61     0     0     0
SMALL
USER_CHARGES

@<TRIPOS>ATOM
      1 C1         -2.9979    1.0786    1.3739 C.3       1 <0>        -0.0474
      2 N1         -2.6584   -0.3421    1.2176 N.4       1 <0>        -0.3852
      3 C2         -3.8879   -1.1434    1.2452 C.3       1 <0>        -0.0067
      4 C3         -3.5477   -2.6152    1.0017 C.3       1 <0>        -0.1421
      5 C4         -2.5950   -3.1013    2.0978 C.3       1 <0>        -0.0972
      6 C5         -1.3486   -2.2116    2.1086 C.3       1 <0>        -0.1506
      7 C6         -1.7704   -0.7546    2.3111 C.3       1 <0>        -0.0068
      8 C7         -2.1877   -4.5490    1.8166 C.3       1 <0>        -0.1160
      9 C8         -1.3373   -5.0738    2.9752 C.3       1 <0>         0.0504
     10 O1         -0.9569   -6.4260    2.7126 O.3       1 <0>        -0.2937
     11 C9         -0.1930   -7.0449    3.6501 C.ar      1 <0>         0.1651
     12 C10         0.1707   -6.3638    4.7907 C.ar      1 <0>        -0.1830
     13 C11         0.9580   -7.0042    5.7552 C.ar      1 <0>         0.2019
     14 C12         1.3682   -8.3437    5.5422 C.ar      1 <0>        -0.1787
     15 C13         0.9850   -9.0137    4.3743 C.ar      1 <0>        -0.1443
     16 C14         0.2118   -8.3718    3.4489 C.ar      1 <0>         0.1113
     17 O2         -0.1649   -9.0255    2.3175 O.3       1 <0>        -0.3009
     18 C15         0.2791  -10.3758    2.1701 C.3       1 <0>         0.0198
     19 C16         2.1629   -8.9646    6.5351 C.ar      1 <0>         0.4667
     20 N2          2.4828   -8.2610    7.6135 N.ar      1 <0>        -0.5779
     21 C17         2.0764   -7.0111    7.7695 C.ar      1 <0>         0.3457
     22 N3          1.3388   -6.3850    6.8836 N.ar      1 <0>        -0.5426
     23 N4          2.5934  -10.2674    6.3858 N.pl3     1 <0>        -0.6299
     24 C18         3.2615  -10.9083    7.4354 C.ar      1 <0>         0.1386
     25 C19         3.1591  -10.4153    8.7292 C.ar      1 <0>        -0.1043
     26 C20         3.8195  -11.0496    9.7635 C.ar      1 <0>        -0.0734
     27 C21         4.5831  -12.1757    9.5121 C.ar      1 <0>        -0.0862
     28 C22         4.6882  -12.6707    8.2244 C.ar      1 <0>        -0.1007
     29 C23         4.0249  -12.0436    7.1855 C.ar      1 <0>         0.0684
     30 F1          4.1228  -12.5300    5.9288 F         1 <0>        -0.1329
     31 Br1         5.4856  -13.0398   10.9315 Br        1 <0>        -0.0302
     32 H1         -2.0860    1.6751    1.3470 H         1 <0>         0.1240
     33 H2         -3.6574    1.3860    0.5624 H         1 <0>         0.1240
     34 H3         -3.5022    1.2287    2.3285 H         1 <0>         0.1217
     35 H4         -4.3680   -1.0380    2.2181 H         1 <0>         0.1291
     36 H5         -4.5662   -0.7941    0.4667 H         1 <0>         0.1321
     37 H6         -4.4616   -3.2087    1.0244 H         1 <0>         0.1152
     38 H7         -3.0678   -2.7218    0.0289 H         1 <0>         0.0914
     39 H8         -3.0929   -3.0429    3.0657 H         1 <0>         0.0944
     40 H9         -0.6908   -2.5165    2.9225 H         1 <0>         0.1135
     41 H10        -0.8231   -2.3097    1.1588 H         1 <0>         0.0925
     42 H11        -0.8854   -0.1185    2.3195 H         1 <0>         0.1319
     43 H12        -2.2956   -0.6576    3.2613 H         1 <0>         0.1294
     44 H13        -3.0814   -5.1645    1.7141 H         1 <0>         0.0887
     45 H14        -1.6097   -4.5911    0.8935 H         1 <0>         0.0837
     46 H15        -0.4436   -4.4583    3.0778 H         1 <0>         0.0676
     47 H16        -1.9153   -5.0317    3.8984 H         1 <0>         0.0704
     48 H17        -0.1488   -5.3430    4.9398 H         1 <0>         0.1524
     49 H18         1.2956  -10.0345    4.2076 H         1 <0>         0.1413
     50 H19        -0.0902  -10.7788    1.2271 H         1 <0>         0.1097
     51 H20         1.3687  -10.4025    2.1749 H         1 <0>         0.0595
     52 H21        -0.1027  -10.9760    2.9960 H         1 <0>         0.0596
     53 H22         2.3646   -6.4832    8.6665 H         1 <0>         0.2025
     54 H23         2.4329  -10.7388    5.5534 H         1 <0>         0.4243
     55 H24         2.5637   -9.5362    8.9269 H         1 <0>         0.1818
     56 H25         3.7400  -10.6657   10.7698 H         1 <0>         0.1459
     57 H26         5.2852  -13.5496    8.0311 H         1 <0>         0.1514
     58 H27        -2.1895   -0.4796    0.3348 H         1 <0>         0.4248
@<TRIPOS>BOND
     1    1    2 1
     2    1   32 1
     3    1   33 1
     4    1   34 1
     5    2    7 1
     6    2    3 1
     7    2   58 1
     8    3    4 1
     9    3   35 1
    10    3   36 1
    11    4    5 1
    12    4   37 1
    13    4   38 1
    14    5    6 1
    15    5    8 1
    16    5   39 1
    17    6    7 1
    18    6   40 1
    19    6   41 1
    20    7   42 1
    21    7   43 1
    22    8    9 1
    23    8   44 1
    24    8   45 1
    25    9   10 1
    26    9   46 1
    27    9   47 1
    28   10   11 1
    29   11   16 ar
    30   11   12 ar
    31   12   13 ar
    32   12   48 1
    33   13   22 ar
    34   13   14 ar
    35   14   15 ar
    36   14   19 ar
    37   15   16 ar
    38   15   49 1
    39   16   17 1
    40   17   18 1
    41   18   50 1
    42   18   51 1
    43   18   52 1
    44   19   20 ar
    45   19   23 1
    46   20   21 ar
    47   21   22 ar
    48   21   53 1
    49   23   24 1
    50   23   54 1
    51   24   29 ar
    52   24   25 ar
    53   25   26 ar
    54   25   55 1
    55   26   27 ar
    56   26   56 1
    57   27   28 ar
    58   27   31 1
    59   28   29 ar
    60   28   57 1
    61   29   30 1
@<TRIPOS>MOLECULE
CHEMBL215863
   61    65     0     0     0
SMALL
USER_CHARGES

@<TRIPOS>ATOM
      1 C1         -0.0178    0.8623    0.3730 C.3       1 <0>        -0.1273
      2 C2         -0.0694   -0.6395    0.2594 C.ar      1 <0>        -0.0377
      3 C3         -0.1411   -1.2342   -0.9855 C.ar      1 <0>        -0.1228
      4 C4         -0.1888   -2.6090   -1.0982 C.ar      1 <0>        -0.0780
      5 C5         -0.1643   -3.4071    0.0478 C.ar      1 <0>        -0.1430
      6 C6         -0.0916   -2.8117    1.3058 C.ar      1 <0>        -0.0372
      7 C7         -0.0390   -1.4254    1.4109 C.ar      1 <0>        -0.0539
      8 C8          0.0442   -0.7841    2.7462 C.ar      1 <0>        -0.0707
      9 C9          1.0175    0.1984    2.9872 C.ar      1 <0>        -0.0513
     10 C10         1.1160    0.8021    4.2012 C.ar      1 <0>        -0.1169
     11 C11         0.2355    0.4444    5.2344 C.ar      1 <0>         0.2138
     12 C12        -0.7525   -0.5476    5.0007 C.ar      1 <0>        -0.2070
     13 C13        -0.8419   -1.1552    3.7419 C.ar      1 <0>        -0.0382
     14 C14        -1.6229   -0.8868    6.0543 C.ar      1 <0>         0.2414
     15 N1         -1.4820   -0.2695    7.2085 N.ar      1 <0>        -0.5479
     16 C15        -0.5434    0.6569    7.3928 C.ar      1 <0>         0.5664
     17 N2          0.2993    1.0153    6.4434 N.ar      1 <0>        -0.5630
     18 N3         -0.4484    1.2689    8.6308 N.pl3     1 <0>        -0.6356
     19 C16        -1.3731    0.9641    9.6341 C.ar      1 <0>         0.1563
     20 C17        -1.8625   -0.3298    9.7598 C.ar      1 <0>        -0.1134
     21 C18        -2.7759   -0.6275   10.7519 C.ar      1 <0>        -0.1025
     22 C19        -3.2037    0.3609   11.6194 C.ar      1 <0>        -0.1357
     23 C20        -2.7187    1.6501   11.4967 C.ar      1 <0>        -0.1008
     24 C21        -1.8001    1.9531   10.5110 C.ar      1 <0>        -0.1466
     25 C22        -0.2159   -4.8796   -0.0734 C.2       1 <0>         0.5640
     26 O1         -0.1945   -5.5727    0.9251 O.2       1 <0>        -0.5125
     27 N4         -0.2866   -5.4535   -1.2908 N.am      1 <0>        -0.6670
     28 C23        -0.4171   -6.8413   -1.4030 C.ar      1 <0>         0.1424
     29 C24         0.1998   -7.6755   -0.4792 C.ar      1 <0>        -0.0842
     30 C25         0.0686   -9.0454   -0.5926 C.ar      1 <0>        -0.1066
     31 C26        -0.6760   -9.5872   -1.6245 C.ar      1 <0>        -0.0808
     32 C27        -1.2908   -8.7598   -2.5460 C.ar      1 <0>        -0.1697
     33 C28        -1.1683   -7.3885   -2.4349 C.ar      1 <0>        -0.0582
     34 C29        -1.8444   -6.4872   -3.4358 C.3       1 <0>        -0.1393
     35 C30        -2.1003   -9.3547   -3.6694 C.3       1 <0>         0.5116
     36 F1         -2.0822  -10.7500   -3.5692 F         1 <0>        -0.1747
     37 F2         -3.4201   -8.8982   -3.5856 F         1 <0>        -0.1743
     38 F3         -1.5501   -8.9680   -4.8961 F         1 <0>        -0.1748
     39 H1          1.0207    1.1928    0.3517 H         1 <0>         0.0798
     40 H2         -0.5583    1.3086   -0.4617 H         1 <0>         0.0732
     41 H3         -0.4784    1.1718    1.3111 H         1 <0>         0.0754
     42 H4         -0.1602   -0.6208   -1.8742 H         1 <0>         0.1352
     43 H5         -0.2454   -3.0683   -2.0741 H         1 <0>         0.1267
     44 H6         -0.0728   -3.4241    2.1952 H         1 <0>         0.1408
     45 H7          1.6981    0.4784    2.1968 H         1 <0>         0.1358
     46 H8          1.8708    1.5557    4.3707 H         1 <0>         0.1413
     47 H9         -1.5921   -1.9085    3.5517 H         1 <0>         0.1381
     48 H10        -2.3888   -1.6360    5.9186 H         1 <0>         0.1814
     49 H11         0.2597    1.9093    8.8022 H         1 <0>         0.4244
     50 H12        -1.5294   -1.1020    9.0822 H         1 <0>         0.1391
     51 H13        -3.1569   -1.6333   10.8502 H         1 <0>         0.1249
     52 H14        -3.9183    0.1255   12.3941 H         1 <0>         0.1227
     53 H15        -3.0551    2.4198   12.1756 H         1 <0>         0.1258
     54 H16        -1.4181    2.9591   10.4187 H         1 <0>         0.1240
     55 H17        -0.2470   -4.9039   -2.0891 H         1 <0>         0.4125
     56 H18         0.7816   -7.2530    0.3267 H         1 <0>         0.1501
     57 H19         0.5482   -9.6944    0.1251 H         1 <0>         0.1405
     58 H20        -0.7770  -10.6590   -1.7110 H         1 <0>         0.1411
     59 H21        -1.1692   -6.3006   -4.2709 H         1 <0>         0.0847
     60 H22        -2.7517   -6.9673   -3.8023 H         1 <0>         0.0831
     61 H23        -2.1012   -5.5417   -2.9580 H         1 <0>         0.0750
@<TRIPOS>BOND
     1    1    2 1
     2    1   39 1
     3    1   40 1
     4    1   41 1
     5    2    7 ar
     6    2    3 ar
     7    3    4 ar
     8    3   42 1
     9    4    5 ar
    10    4   43 1
    11    5    6 ar
    12    5   25 1
    13    6    7 ar
    14    6   44 1
    15    7    8 1
    16    8   13 ar
    17    8    9 ar
    18    9   10 ar
    19    9   45 1
    20   10   11 ar
    21   10   46 1
    22   11   17 ar
    23   11   12 ar
    24   12   13 ar
    25   12   14 ar
    26   13   47 1
    27   14   15 ar
    28   14   48 1
    29   15   16 ar
    30   16   17 ar
    31   16   18 1
    32   18   19 1
    33   18   49 1
    34   19   24 ar
    35   19   20 ar
    36   20   21 ar
    37   20   50 1
    38   21   22 ar
    39   21   51 1
    40   22   23 ar
    41   22   52 1
    42   23   24 ar
    43   23   53 1
    44   24   54 1
    45   25   26 2
    46   25   27 am
    47   27   28 1
    48   27   55 1
    49   28   33 ar
    50   28   29 ar
    51   29   30 ar
    52   29   56 1
    53   30   31 ar
    54   30   57 1
    55   31   32 ar
    56   31   58 1
    57   32   33 ar
    58   32   35 1
    59   33   34 1
    60   34   59 1
    61   34   60 1
    62   34   61 1
    63   35   36 1
    64   35   37 1
    65   35   38 1
@<TRIPOS>MOLECULE
CHEMBL496494
   53    56     0     0     0
SMALL
USER_CHARGES

@<TRIPOS>ATOM
      1 C1         -0.0523    1.5020    0.0223 C.3       1 <0>        -0.1270
      2 C2         -0.0143   -0.0044    0.0081 C.2       1 <0>         0.0340
      3 C3         -0.6900   -0.7219   -0.9848 C.2       1 <0>        -0.2231
      4 C4         -0.6505   -2.0757   -0.9901 C.2       1 <0>         0.1426
      5 N1          0.0398   -2.7615   -0.0409 N.am      1 <0>        -0.4554
      6 C5          0.7059   -2.1145    0.9342 C.2       1 <0>         0.5254
      7 O1          1.3205   -2.7461    1.7776 O.2       1 <0>        -0.5262
      8 C6          0.6958   -0.6991    0.9755 C.2       1 <0>        -0.1846
      9 C7          1.4281    0.0278    2.0382 C.ar      1 <0>        -0.0422
     10 C8          2.5135    0.8522    1.6978 C.ar      1 <0>        -0.0487
     11 C9          3.2026    1.5303    2.6530 C.ar      1 <0>        -0.1229
     12 C10         2.8312    1.4117    4.0018 C.ar      1 <0>         0.2143
     13 C11         1.7357    0.5818    4.3569 C.ar      1 <0>        -0.2113
     14 C12         1.0338   -0.1060    3.3590 C.ar      1 <0>        -0.0261
     15 C13         1.3850    0.4818    5.7169 C.ar      1 <0>         0.2449
     16 N2          2.0880    1.1618    6.5982 N.ar      1 <0>        -0.5643
     17 C14         3.1103    1.9313    6.2296 C.ar      1 <0>         0.5692
     18 N3          3.4843    2.0634    4.9718 N.ar      1 <0>        -0.5738
     19 N4          3.8084    2.6199    7.2054 N.pl3     1 <0>        -0.8196
     20 C15         0.0582   -4.1610   -0.0775 C.ar      1 <0>         0.0929
     21 C16         1.0513   -4.8257   -0.7851 C.ar      1 <0>        -0.0925
     22 C17         1.0669   -6.2063   -0.8188 C.ar      1 <0>        -0.1063
     23 C18         0.0951   -6.9268   -0.1489 C.ar      1 <0>        -0.0519
     24 C19        -0.8951   -6.2680    0.5566 C.ar      1 <0>        -0.1121
     25 C20        -0.9132   -4.8876    0.5986 C.ar      1 <0>        -0.0925
     26 C21         0.1149   -8.4331   -0.1882 C.3       1 <0>        -0.0326
     27 C22         1.4295   -8.9416    0.4069 C.3       1 <0>        -0.1410
     28 C23        -1.0590   -8.9800    0.6265 C.3       1 <0>        -0.1471
     29 C24        -0.0057   -8.9071   -1.6380 C.3       1 <0>        -0.1397
     30 H1          0.7758    1.8920   -0.5695 H         1 <0>         0.0848
     31 H2         -0.9957    1.8456   -0.4020 H         1 <0>         0.0767
     32 H3          0.0354    1.8580    1.0488 H         1 <0>         0.0768
     33 H4         -1.2442   -0.1956   -1.7478 H         1 <0>         0.1512
     34 H5         -1.1765   -2.6194   -1.7609 H         1 <0>         0.1630
     35 H6          2.8048    0.9482    0.6622 H         1 <0>         0.1304
     36 H7          4.0352    2.1594    2.3749 H         1 <0>         0.1385
     37 H8          0.1962   -0.7369    3.6172 H         1 <0>         0.1309
     38 H9          0.5580   -0.1382    6.0299 H         1 <0>         0.1777
     39 H10         3.5499    2.5367    8.1366 H         1 <0>         0.4145
     40 H11         4.5564    3.1859    6.9585 H         1 <0>         0.4154
     41 H12         1.8103   -4.2635   -1.3088 H         1 <0>         0.1267
     42 H13         1.8387   -6.7237   -1.3692 H         1 <0>         0.1309
     43 H14        -1.6529   -6.8335    1.0785 H         1 <0>         0.1364
     44 H15        -1.6842   -4.3737    1.1534 H         1 <0>         0.1268
     45 H16         1.5154   -8.6039    1.4397 H         1 <0>         0.0583
     46 H17         1.4438  -10.0311    0.3785 H         1 <0>         0.0617
     47 H18         2.2658   -8.5520   -0.1735 H         1 <0>         0.0580
     48 H19        -1.9955   -8.6178    0.2025 H         1 <0>         0.0599
     49 H20        -1.0447  -10.0696    0.5980 H         1 <0>         0.0615
     50 H21        -0.9731   -8.6424    1.6593 H         1 <0>         0.0602
     51 H22         0.8306   -8.5174   -2.2184 H         1 <0>         0.0579
     52 H23         0.0087   -9.9966   -1.6664 H         1 <0>         0.0616
     53 H24        -0.9422   -8.5448   -2.0619 H         1 <0>         0.0575
@<TRIPOS>BOND
     1    1    2 1
     2    1   30 1
     3    1   31 1
     4    1   32 1
     5    2    8 2
     6    2    3 1
     7    3    4 2
     8    3   33 1
     9    4    5 1
    10    4   34 1
    11    5    6 am
    12    5   20 1
    13    6    7 2
    14    6    8 1
    15    8    9 1
    16    9   14 ar
    17    9   10 ar
    18   10   11 ar
    19   10   35 1
    20   11   12 ar
    21   11   36 1
    22   12   18 ar
    23   12   13 ar
    24   13   14 ar
    25   13   15 ar
    26   14   37 1
    27   15   16 ar
    28   15   38 1
    29   16   17 ar
    30   17   18 ar
    31   17   19 1
    32   19   39 1
    33   19   40 1
    34   20   25 ar
    35   20   21 ar
    36   21   22 ar
    37   21   41 1
    38   22   23 ar
    39   22   42 1
    40   23   24 ar
    41   23   26 1
    42   24   25 ar
    43   24   43 1
    44   25   44 1
    45   26   27 1
    46   26   28 1
    47   26   29 1
    48   27   45 1
    49   27   46 1
    50   27   47 1
    51   28   48 1
    52   28   49 1
    53   28   50 1
    54   29   51 1
    55   29   52 1
    56   29   53 1
@<TRIPOS>MOLECULE
CHEMBL375890
   64    69     0     0     0
SMALL
USER_CHARGES

@<TRIPOS>ATOM
      1 C1         -0.0178    1.4648    0.0101 C.3       1 <0>        -0.0459
      2 N1          0.0021   -0.0041    0.0020 N.4       1 <0>        -0.3884
      3 C2         -1.3761   -0.5122    0.0107 C.3       1 <0>        -0.0024
      4 C3         -1.3560   -2.0421   -0.0167 C.3       1 <0>         0.0248
      5 N2         -0.6244   -2.5407    1.1564 N.3       1 <0>        -0.5344
      6 C4          0.7499   -2.0201    1.1745 C.3       1 <0>         0.0187
      7 C5          0.7125   -0.4904    1.1921 C.3       1 <0>        -0.0025
      8 C6         -0.6316   -4.0091    1.1963 C.3       1 <0>         0.0981
      9 C7         -0.0938   -4.4782    2.5236 C.ar      1 <0>        -0.0817
     10 C8          1.2623   -4.7055    2.6779 C.ar      1 <0>        -0.1168
     11 C9          1.7629   -5.1344    3.8892 C.ar      1 <0>        -0.0909
     12 C10         0.8978   -5.3409    4.9668 C.ar      1 <0>        -0.0250
     13 C11        -0.4668   -5.1086    4.8000 C.ar      1 <0>        -0.0651
     14 C12        -0.9565   -4.6753    3.5879 C.ar      1 <0>        -0.0723
     15 C13        -1.1300   -5.4146    6.1205 C.3       1 <0>        -0.0133
     16 C14        -0.0185   -5.8406    7.0488 C.2       1 <0>        -0.2162
     17 C15         1.1509   -5.7893    6.3541 C.2       1 <0>         0.0973
     18 N3          2.1484   -6.1767    7.2056 N.pl3     1 <0>        -0.4487
     19 H1          3.0917   -6.2374    6.9881 H         1 <0>         0.4447
     20 N4          1.5698   -6.4699    8.4463 N.2       1 <0>        -0.2383
     21 C16         0.2695   -6.2696    8.3568 C.2       1 <0>         0.1840
     22 C17        -0.7146   -6.4623    9.4429 C.2       1 <0>        -0.0961
     23 C18        -0.7201   -7.4062   10.4509 C.2       1 <0>        -0.1166
     24 C19        -1.7476   -7.3950   11.3599 C.2       1 <0>        -0.1202
     25 C20        -2.7379   -6.4378   11.2301 C.2       1 <0>        -0.0565
     26 S1         -2.1962   -5.5297    9.7918 S.3       1 <0>         0.1371
     27 C21        -3.8972   -6.2264   12.0437 C.1       1 <0>        -0.0704
     28 C22        -4.8477   -6.0532   12.7107 C.1       1 <0>        -0.1261
     29 C23        -6.0394   -5.8359   13.5470 C.3       1 <0>         0.1776
     30 O1         -6.7838   -4.7279   13.0369 O.3       1 <0>        -0.3098
     31 C24        -7.9219   -4.3919   13.6991 C.ar      1 <0>         0.1264
     32 C25        -8.3112   -5.1101   14.8204 C.ar      1 <0>        -0.2102
     33 C26        -9.4683   -4.7663   15.4922 C.ar      1 <0>        -0.0795
     34 C27       -10.2385   -3.7076   15.0476 C.ar      1 <0>        -0.1548
     35 C28        -9.8530   -2.9905   13.9301 C.ar      1 <0>        -0.0788
     36 C29        -8.6935   -3.3264   13.2585 C.ar      1 <0>        -0.1484
     37 H2          1.0047    1.8421    0.0024 H         1 <0>         0.1240
     38 H3         -0.5450    1.8259   -0.8730 H         1 <0>         0.1245
     39 H4         -0.5280    1.8163    0.9069 H         1 <0>         0.1232
     40 H5         -1.8832   -0.1716    0.9134 H         1 <0>         0.1380
     41 H6         -1.9060   -0.1400   -0.8661 H         1 <0>         0.1364
     42 H7         -2.3783   -2.4196    0.0047 H         1 <0>         0.1253
     43 H8         -0.8610   -2.3831   -0.9260 H         1 <0>         0.0617
     44 H9          1.2641   -2.3816    2.0650 H         1 <0>         0.1266
     45 H10         1.2796   -2.3607    0.2848 H         1 <0>         0.0613
     46 H11         1.7310   -0.1020    1.1912 H         1 <0>         0.1353
     47 H12         0.1947   -0.1499    2.0888 H         1 <0>         0.1377
     48 H13        -1.6519   -4.3710    1.0694 H         1 <0>         0.1002
     49 H14        -0.0057   -4.3975    0.3929 H         1 <0>         0.0588
     50 H15         1.9320   -4.5466    1.8455 H         1 <0>         0.1252
     51 H16         2.8222   -5.3109    4.0046 H         1 <0>         0.1270
     52 H17        -2.0142   -4.4934    3.4667 H         1 <0>         0.1334
     53 H18        -1.6238   -4.5238    6.5088 H         1 <0>         0.1033
     54 H19        -1.8510   -6.2233    6.0009 H         1 <0>         0.1063
     55 H20         0.0695   -8.1396   10.5222 H         1 <0>         0.1469
     56 H21        -1.7829   -8.1191   12.1604 H         1 <0>         0.1478
     57 H22        -6.6623   -6.7302   13.5313 H         1 <0>         0.0949
     58 H23        -5.7311   -5.6258   14.5712 H         1 <0>         0.0950
     59 H24        -7.7103   -5.9376   15.1676 H         1 <0>         0.1288
     60 H25        -9.7717   -5.3251   16.3651 H         1 <0>         0.1269
     61 H26       -11.1430   -3.4406   15.5739 H         1 <0>         0.1260
     62 H27       -10.4565   -2.1642   13.5846 H         1 <0>         0.1317
     63 H28        -8.3904   -2.7632   12.3882 H         1 <0>         0.1319
     64 H29         0.4748   -0.3293   -0.8280 H         1 <0>         0.4223
@<TRIPOS>BOND
     1    1    2 1
     2    1   37 1
     3    1   38 1
     4    1   39 1
     5    2    7 1
     6    2    3 1
     7    2   64 1
     8    3    4 1
     9    3   40 1
    10    3   41 1
    11    4    5 1
    12    4   42 1
    13    4   43 1
    14    5    6 1
    15    5    8 1
    16    6    7 1
    17    6   44 1
    18    6   45 1
    19    7   46 1
    20    7   47 1
    21    8    9 1
    22    8   48 1
    23    8   49 1
    24    9   14 ar
    25    9   10 ar
    26   10   11 ar
    27   10   50 1
    28   11   12 ar
    29   11   51 1
    30   12   17 1
    31   12   13 ar
    32   13   14 ar
    33   13   15 1
    34   14   52 1
    35   15   16 1
    36   15   53 1
    37   15   54 1
    38   16   21 1
    39   16   17 2
    40   17   18 1
    41   18   19 1
    42   18   20 1
    43   20   21 2
    44   21   22 1
    45   22   26 1
    46   22   23 2
    47   23   24 1
    48   23   55 1
    49   24   25 2
    50   24   56 1
    51   25   26 1
    52   25   27 1
    53   27   28 3
    54   28   29 1
    55   29   30 1
    56   29   57 1
    57   29   58 1
    58   30   31 1
    59   31   36 ar
    60   31   32 ar
    61   32   33 ar
    62   32   59 1
    63   33   34 ar
    64   33   60 1
    65   34   35 ar
    66   34   61 1
    67   35   36 ar
    68   35   62 1
    69   36   63 1
@<TRIPOS>MOLECULE
CHEMBL375890__1
   64    69     0     0     0
SMALL
USER_CHARGES

@<TRIPOS>ATOM
      1 C1         -0.0178    1.4648    0.0101 C.3       1 <0>        -0.0458
      2 N1          0.0021   -0.0041    0.0020 N.4       1 <0>        -0.3885
      3 C2         -1.3761   -0.5122    0.0107 C.3       1 <0>        -0.0023
      4 C3         -1.3560   -2.0421   -0.0167 C.3       1 <0>         0.0248
      5 N2         -0.6244   -2.5407    1.1564 N.3       1 <0>        -0.5344
      6 C4          0.7499   -2.0201    1.1745 C.3       1 <0>         0.0184
      7 C5          0.7125   -0.4904    1.1921 C.3       1 <0>        -0.0025
      8 C6         -0.6316   -4.0091    1.1963 C.3       1 <0>         0.0987
      9 C7         -0.0938   -4.4782    2.5236 C.ar      1 <0>        -0.0825
     10 C8          1.2620   -4.7056    2.6780 C.ar      1 <0>        -0.1191
     11 C9          1.7606   -5.1350    3.8902 C.ar      1 <0>        -0.0818
     12 C10         0.8956   -5.3414    4.9663 C.ar      1 <0>        -0.0059
     13 C11        -0.4667   -5.1101    4.8017 C.ar      1 <0>        -0.0672
     14 C12        -0.9558   -4.6753    3.5874 C.ar      1 <0>        -0.0758
     15 C13        -1.1462   -5.4122    6.1150 C.3       1 <0>        -0.0039
     16 C14        -0.0542   -5.8417    7.0624 C.2       1 <0>        -0.2228
     17 C15         1.1579   -5.7926    6.3569 C.2       1 <0>         0.0881
     18 N3          2.1237   -6.1670    7.1752 N.2       1 <0>        -0.2425
     19 H1          2.0519   -6.7661    9.2081 H         1 <0>         0.4500
     20 N4          1.5662   -6.4664    8.4238 N.pl3     1 <0>        -0.4483
     21 C16         0.2177   -6.2614    8.3436 C.2       1 <0>         0.1919
     22 C17        -0.7613   -6.4544    9.4261 C.2       1 <0>        -0.1242
     23 C18        -0.8722   -7.5042   10.3207 C.2       1 <0>        -0.1207
     24 C19        -1.8745   -7.4699   11.2550 C.2       1 <0>        -0.1235
     25 C20        -2.7357   -6.3863   11.2661 C.2       1 <0>        -0.0506
     26 S1         -2.1045   -5.3902    9.9260 S.3       1 <0>         0.1534
     27 C21        -3.8449   -6.1276   12.1342 C.1       1 <0>        -0.0773
     28 C22        -4.7542   -5.9156   12.8459 C.1       1 <0>        -0.1180
     29 C23        -5.8943   -5.6497   13.7382 C.3       1 <0>         0.1759
     30 O1         -6.4980   -4.4045   13.3816 O.3       1 <0>        -0.3102
     31 C24        -7.5726   -4.0080   14.1130 C.ar      1 <0>         0.1257
     32 C25        -8.0328   -4.7982   15.1563 C.ar      1 <0>        -0.2099
     33 C26        -9.1250   -4.3926   15.8986 C.ar      1 <0>        -0.0793
     34 C27        -9.7596   -3.2005   15.6022 C.ar      1 <0>        -0.1542
     35 C28        -9.3032   -2.4114   14.5627 C.ar      1 <0>        -0.0788
     36 C29        -8.2076   -2.8095   13.8213 C.ar      1 <0>        -0.1482
     37 H2          1.0047    1.8421    0.0024 H         1 <0>         0.1239
     38 H3         -0.5450    1.8259   -0.8730 H         1 <0>         0.1241
     39 H4         -0.5280    1.8163    0.9069 H         1 <0>         0.1230
     40 H5         -1.8832   -0.1716    0.9134 H         1 <0>         0.1377
     41 H6         -1.9060   -0.1400   -0.8661 H         1 <0>         0.1359
     42 H7         -2.3783   -2.4196    0.0047 H         1 <0>         0.1248
     43 H8         -0.8610   -2.3831   -0.9260 H         1 <0>         0.0614
     44 H9          1.2641   -2.3816    2.0650 H         1 <0>         0.1278
     45 H10         1.2796   -2.3607    0.2848 H         1 <0>         0.0614
     46 H11         1.7310   -0.1020    1.1912 H         1 <0>         0.1353
     47 H12         0.1947   -0.1499    2.0888 H         1 <0>         0.1376
     48 H13        -1.6519   -4.3710    1.0694 H         1 <0>         0.0994
     49 H14        -0.0057   -4.3975    0.3929 H         1 <0>         0.0585
     50 H15         1.9324   -4.5467    1.8463 H         1 <0>         0.1249
     51 H16         2.8197   -5.3118    4.0067 H         1 <0>         0.1306
     52 H17        -2.0134   -4.4928    3.4658 H         1 <0>         0.1316
     53 H18        -1.6423   -4.5190    6.4947 H         1 <0>         0.0979
     54 H19        -1.8703   -6.2167    5.9862 H         1 <0>         0.1008
     55 H20        -0.1827   -8.3347   10.2833 H         1 <0>         0.1448
     56 H21        -1.9903   -8.2727   11.9681 H         1 <0>         0.1489
     57 H22        -6.6273   -6.4503   13.6396 H         1 <0>         0.0963
     58 H23        -5.5450   -5.6019   14.7696 H         1 <0>         0.0960
     59 H24        -7.5379   -5.7298   15.3877 H         1 <0>         0.1289
     60 H25        -9.4837   -5.0075   16.7108 H         1 <0>         0.1272
     61 H26       -10.6136   -2.8854   16.1835 H         1 <0>         0.1263
     62 H27        -9.8008   -1.4808   14.3329 H         1 <0>         0.1320
     63 H28        -7.8487   -2.1906   13.0123 H         1 <0>         0.1318
     64 H29         0.4748   -0.3293   -0.8280 H         1 <0>         0.4222
@<TRIPOS>BOND
     1    1    2 1
     2    1   37 1
     3    1   38 1
     4    1   39 1
     5    2    7 1
     6    2    3 1
     7    2   64 1
     8    3    4 1
     9    3   40 1
    10    3   41 1
    11    4    5 1
    12    4   42 1
    13    4   43 1
    14    5    6 1
    15    5    8 1
    16    6    7 1
    17    6   44 1
    18    6   45 1
    19    7   46 1
    20    7   47 1
    21    8    9 1
    22    8   48 1
    23    8   49 1
    24    9   14 ar
    25    9   10 ar
    26   10   11 ar
    27   10   50 1
    28   11   12 ar
    29   11   51 1
    30   12   13 ar
    31   12   17 1
    32   13   14 ar
    33   13   15 1
    34   14   52 1
    35   15   53 1
    36   15   54 1
    37   15   16 1
    38   16   17 1
    39   16   21 2
    40   17   18 2
    41   18   20 1
    42   19   20 1
    43   20   21 1
    44   21   22 1
    45   22   26 1
    46   22   23 2
    47   23   24 1
    48   23   55 1
    49   24   25 2
    50   24   56 1
    51   25   26 1
    52   25   27 1
    53   27   28 3
    54   28   29 1
    55   29   30 1
    56   29   57 1
    57   29   58 1
    58   30   31 1
    59   31   36 ar
    60   31   32 ar
    61   32   33 ar
    62   32   59 1
    63   33   34 ar
    64   33   60 1
    65   34   35 ar
    66   34   61 1
    67   35   36 ar
    68   35   62 1
    69   36   63 1
@<TRIPOS>MOLECULE
CHEMBL189408
   69    72     0     0     0
SMALL
USER_CHARGES

@<TRIPOS>ATOM
      1 C1          1.2837    0.5353   -0.0383 C.3       1 <0>         0.0668
      2 N1          0.6196   -0.7701   -0.0682 N.pl3     1 <0>        -0.4927
      3 C2          0.1622   -1.3501    1.1211 C.ar      1 <0>         0.0852
      4 C3         -0.8057   -0.7058    1.8806 C.ar      1 <0>        -0.0862
      5 C4         -1.2567   -1.2779    3.0534 C.ar      1 <0>        -0.1330
      6 C5         -0.7426   -2.4974    3.4735 C.ar      1 <0>         0.1887
      7 C6          0.2250   -3.1417    2.7143 C.ar      1 <0>        -0.1049
      8 C7          0.6721   -2.5727    1.5385 C.ar      1 <0>        -0.0745
      9 N2         -1.2002   -3.0778    4.6644 N.am      1 <0>        -0.6896
     10 C8         -0.3461   -3.7587    5.4539 C.2       1 <0>         0.7045
     11 O1          0.8088   -3.9152    5.1072 O.2       1 <0>        -0.5691
     12 N3         -0.7721   -4.2661    6.6275 N.am      1 <0>        -0.7376
     13 C9          0.1564   -5.0062    7.4857 C.3       1 <0>         0.1414
     14 C10        -0.5747   -5.4702    8.7471 C.3       1 <0>        -0.0906
     15 C11         0.3804   -6.2316    9.6298 C.ar      1 <0>        -0.0884
     16 C12         0.5193   -7.5988    9.4803 C.ar      1 <0>        -0.1135
     17 C13         1.3954   -8.2971   10.2901 C.ar      1 <0>        -0.1175
     18 C14         2.1329   -7.6282   11.2490 C.ar      1 <0>        -0.1177
     19 C15         1.9946   -6.2609   11.3979 C.ar      1 <0>        -0.1172
     20 C16         1.1217   -5.5619   10.5853 C.ar      1 <0>        -0.1133
     21 C17         0.4442   -1.4310   -1.2738 C.ar      1 <0>         0.5097
     22 C18         1.0560   -0.9578   -2.4370 C.ar      1 <0>        -0.2630
     23 C19         0.8536   -1.6486   -3.6156 C.ar      1 <0>         0.2090
     24 N4          0.0908   -2.7322   -3.6092 N.ar      1 <0>        -0.5764
     25 C20        -0.4776   -3.1583   -2.4910 C.ar      1 <0>         0.6554
     26 N5         -0.3042   -2.5276   -1.3391 N.ar      1 <0>        -0.5547
     27 N6         -1.2683   -4.2951   -2.5261 N.pl3     1 <0>        -0.6153
     28 C21        -1.3435   -5.0585   -3.6950 C.ar      1 <0>         0.1130
     29 C22        -0.2039   -5.2753   -4.4593 C.ar      1 <0>        -0.1680
     30 C23        -0.2814   -6.0302   -5.6129 C.ar      1 <0>        -0.0730
     31 C24        -1.4921   -6.5699   -6.0080 C.ar      1 <0>        -0.0943
     32 C25        -2.6283   -6.3556   -5.2498 C.ar      1 <0>        -0.0481
     33 C26        -2.5564   -5.6066   -4.0914 C.ar      1 <0>        -0.1030
     34 C27        -3.9454   -6.9448   -5.6846 C.3       1 <0>        -0.5840
     35 S1         -4.1390   -8.5954   -4.9575 S.o2      1 <0>         2.4152
     36 O2         -3.1418   -9.4472   -5.5046 O.2       1 <0>        -0.9253
     37 O3         -4.2313   -8.4569   -3.5463 O.2       1 <0>        -0.9297
     38 C28        -5.7551   -9.1244   -5.5891 C.3       1 <0>        -0.6529
     39 H1          2.3567    0.3943    0.0917 H         1 <0>         0.0874
     40 H2          1.0971    1.0594   -0.9757 H         1 <0>         0.0917
     41 H3          0.8914    1.1237    0.7912 H         1 <0>         0.1012
     42 H4         -1.2053    0.2429    1.5540 H         1 <0>         0.1336
     43 H5         -2.0091   -0.7767    3.6442 H         1 <0>         0.1381
     44 H6          0.6247   -4.0903    3.0413 H         1 <0>         0.1490
     45 H7          1.4215   -3.0760    0.9457 H         1 <0>         0.1246
     46 H8         -2.1317   -2.9894    4.9203 H         1 <0>         0.4115
     47 H9         -1.6934   -4.1413    6.9040 H         1 <0>         0.4005
     48 H10         0.5367   -5.8737    6.9463 H         1 <0>         0.0727
     49 H11         0.9877   -4.3588    7.7649 H         1 <0>         0.0730
     50 H12        -0.9550   -4.6028    9.2865 H         1 <0>         0.0811
     51 H13        -1.4060   -6.1176    8.4679 H         1 <0>         0.0809
     52 H14        -0.0569   -8.1214    8.7311 H         1 <0>         0.1218
     53 H15         1.5034   -9.3654   10.1737 H         1 <0>         0.1240
     54 H16         2.8168   -8.1740   11.8821 H         1 <0>         0.1238
     55 H17         2.5706   -5.7384   12.1473 H         1 <0>         0.1242
     56 H18         1.0165   -4.4931   10.6991 H         1 <0>         0.1221
     57 H19         1.6729   -0.0716   -2.4153 H         1 <0>         0.1882
     58 H20         1.3119   -1.3092   -4.5328 H         1 <0>         0.2174
     59 H21        -1.7700   -4.5614   -1.7397 H         1 <0>         0.4501
     60 H22         0.7416   -4.8536   -4.1517 H         1 <0>         0.1330
     61 H23         0.6042   -6.1991   -6.2075 H         1 <0>         0.1499
     62 H24        -1.5501   -7.1596   -6.9108 H         1 <0>         0.1491
     63 H25        -3.4434   -5.4433   -3.4973 H         1 <0>         0.1489
     64 H26        -4.7594   -6.3022   -5.3490 H         1 <0>         0.1493
     65 H27        -3.9679   -7.0217   -6.7717 H         1 <0>         0.1529
     66 H28        -5.7305   -9.1447   -6.6786 H         1 <0>         0.1328
     67 H29        -5.9839  -10.1213   -5.2122 H         1 <0>         0.1375
     68 H30        -6.5220   -8.4252   -5.2559 H         1 <0>         0.1315
     69 H31        -0.0536   -3.2201   -4.4350 H         1 <0>         0.4429
@<TRIPOS>BOND
     1    1    2 1
     2    1   39 1
     3    1   40 1
     4    1   41 1
     5    2    3 1
     6    2   21 1
     7    3    8 ar
     8    3    4 ar
     9    4    5 ar
    10    4   42 1
    11    5    6 ar
    12    5   43 1
    13    6    7 ar
    14    6    9 1
    15    7    8 ar
    16    7   44 1
    17    8   45 1
    18    9   10 am
    19    9   46 1
    20   10   11 2
    21   10   12 am
    22   12   13 1
    23   12   47 1
    24   13   14 1
    25   13   48 1
    26   13   49 1
    27   14   15 1
    28   14   50 1
    29   14   51 1
    30   15   20 ar
    31   15   16 ar
    32   16   17 ar
    33   16   52 1
    34   17   18 ar
    35   17   53 1
    36   18   19 ar
    37   18   54 1
    38   19   20 ar
    39   19   55 1
    40   20   56 1
    41   21   26 ar
    42   21   22 ar
    43   22   23 ar
    44   22   57 1
    45   23   24 ar
    46   23   58 1
    47   24   25 ar
    48   24   69 1
    49   25   26 ar
    50   25   27 1
    51   27   28 1
    52   27   59 1
    53   28   33 ar
    54   28   29 ar
    55   29   30 ar
    56   29   60 1
    57   30   31 ar
    58   30   61 1
    59   31   32 ar
    60   31   62 1
    61   32   33 ar
    62   32   34 1
    63   33   63 1
    64   34   35 1
    65   34   64 1
    66   34   65 1
    67   35   36 2
    68   35   37 2
    69   35   38 1
    70   38   66 1
    71   38   67 1
    72   38   68 1
@<TRIPOS>MOLECULE
CHEMBL272670
   46    49     0     0     0
SMALL
USER_CHARGES

@<TRIPOS>ATOM
      1 C1         -1.0138    2.2222    1.2463 C.3       1 <0>         0.0886
      2 N1         -1.7349    1.4073    2.2272 N.pl3     1 <0>        -0.7117
      3 C2         -1.0311    0.6553    3.1547 C.ar      1 <0>         0.4593
      4 C3          0.3616    0.6713    3.1673 C.ar      1 <0>        -0.3087
      5 C4          1.0201   -0.0991    4.1170 C.ar      1 <0>         0.3856
      6 N2          0.3027   -0.8200    4.9750 N.ar      1 <0>        -0.5996
      7 C5         -1.0139   -0.8098    4.9322 C.ar      1 <0>         0.3772
      8 N3         -1.6762   -0.0888    4.0505 N.ar      1 <0>        -0.5930
      9 O1          2.3744   -0.1167    4.1688 O.3       1 <0>        -0.2443
     10 C6          2.9653   -0.8047    5.1809 C.ar      1 <0>         0.1040
     11 C7          3.0032   -2.2013    5.1362 C.ar      1 <0>        -0.1017
     12 C8          3.5884   -2.9168    6.1358 C.ar      1 <0>        -0.1023
     13 C9          4.1619   -2.2483    7.2265 C.ar      1 <0>        -0.0060
     14 C10         4.1259   -0.8333    7.2761 C.ar      1 <0>        -0.0485
     15 C11         3.5198   -0.1225    6.2267 C.ar      1 <0>        -0.1049
     16 C12         4.7016   -0.1633    8.3698 C.ar      1 <0>        -0.0634
     17 C13         5.2900   -0.8724    9.3739 C.ar      1 <0>        -0.1295
     18 C14         5.3352   -2.2604    9.3430 C.ar      1 <0>        -0.0644
     19 C15         4.7794   -2.9628    8.2836 C.ar      1 <0>        -0.1291
     20 C16         4.8305   -4.4361    8.2575 C.2       1 <0>         0.5672
     21 O2          4.4362   -5.0409    7.2789 O.2       1 <0>        -0.5084
     22 N4          5.3143   -5.1125    9.3181 N.am      1 <0>        -0.6679
     23 C17         5.2785   -6.5108    9.3314 C.ar      1 <0>         0.1478
     24 C18         5.0519   -7.1896   10.5217 C.ar      1 <0>        -0.1309
     25 C19         5.0166   -8.5701   10.5319 C.ar      1 <0>        -0.0909
     26 C20         5.2073   -9.2771    9.3577 C.ar      1 <0>        -0.0481
     27 C21         5.4337   -8.6033    8.1703 C.ar      1 <0>        -0.0908
     28 C22         5.4639   -7.2227    8.1534 C.ar      1 <0>        -0.1071
     29 Cl1         5.1629  -11.0125    9.3742 Cl        1 <0>        -0.0681
     30 H1         -0.3785    1.5797    0.6368 H         1 <0>         0.0622
     31 H2         -1.7295    2.7381    0.6061 H         1 <0>         0.0854
     32 H3         -0.3971    2.9554    1.7661 H         1 <0>         0.0619
     33 H4         -2.7048    1.3939    2.2275 H         1 <0>         0.4130
     34 H5          0.9151    1.2672    2.4568 H         1 <0>         0.1487
     35 H6         -1.5664   -1.4063    5.6431 H         1 <0>         0.2013
     36 H7          2.5621   -2.7197    4.2977 H         1 <0>         0.1290
     37 H8          3.6104   -3.9956    6.0889 H         1 <0>         0.1747
     38 H9          3.4886    0.9568    6.2486 H         1 <0>         0.1375
     39 H10         4.6778    0.9155    8.4142 H         1 <0>         0.1358
     40 H11         5.7294   -0.3459   10.2082 H         1 <0>         0.1355
     41 H12         5.8080   -2.7980   10.1516 H         1 <0>         0.1292
     42 H13         5.6872   -4.6296   10.0722 H         1 <0>         0.4127
     43 H14         4.9037   -6.6383   11.4385 H         1 <0>         0.1363
     44 H15         4.8404   -9.0985   11.4573 H         1 <0>         0.1388
     45 H16         5.5826   -9.1575    7.2554 H         1 <0>         0.1382
     46 H17         5.6362   -6.6972    7.2257 H         1 <0>         0.1496
@<TRIPOS>BOND
     1    1    2 1
     2    1   30 1
     3    1   31 1
     4    1   32 1
     5    2    3 1
     6    2   33 1
     7    3    8 ar
     8    3    4 ar
     9    4    5 ar
    10    4   34 1
    11    5    6 ar
    12    5    9 1
    13    6    7 ar
    14    7    8 ar
    15    7   35 1
    16    9   10 1
    17   10   15 ar
    18   10   11 ar
    19   11   12 ar
    20   11   36 1
    21   12   13 ar
    22   12   37 1
    23   13   19 ar
    24   13   14 ar
    25   14   15 ar
    26   14   16 ar
    27   15   38 1
    28   16   17 ar
    29   16   39 1
    30   17   18 ar
    31   17   40 1
    32   18   19 ar
    33   18   41 1
    34   19   20 1
    35   20   21 2
    36   20   22 am
    37   22   23 1
    38   22   42 1
    39   23   28 ar
    40   23   24 ar
    41   24   25 ar
    42   24   43 1
    43   25   26 ar
    44   25   44 1
    45   26   27 ar
    46   26   29 1
    47   27   28 ar
    48   27   45 1
    49   28   46 1
@<TRIPOS>MOLECULE
CHEMBL225278
   63    68     0     0     0
SMALL
USER_CHARGES

@<TRIPOS>ATOM
      1 C1         -0.0178    1.4608    0.0101 C.3       1 <0>         0.0669
      2 N1          0.0021   -0.0041    0.0020 N.am      1 <0>        -0.6133
      3 C2         -1.2697   -0.7229    0.0044 C.3       1 <0>         0.0850
      4 C3         -1.0500   -2.1710   -0.4375 C.3       1 <0>        -0.0211
      5 N2          0.0419   -2.7498    0.3607 N.4       1 <0>        -0.3864
      6 C4          1.3085   -2.1272   -0.0442 C.3       1 <0>        -0.0184
      7 C5          1.1842   -0.6305   -0.0126 C.2       1 <0>         0.4990
      8 O1          2.1966    0.0371    0.0046 O.2       1 <0>        -0.4887
      9 C6          0.1086   -4.1984    0.1260 C.3       1 <0>         0.0473
     10 C7          1.1449   -4.8074    1.0349 C.ar      1 <0>        -0.1603
     11 C8          2.4593   -4.9068    0.6149 C.ar      1 <0>        -0.0960
     12 C9          3.4126   -5.4627    1.4421 C.ar      1 <0>        -0.0821
     13 C10         3.0519   -5.9274    2.7082 C.ar      1 <0>         0.0295
     14 C11         1.7275   -5.8233    3.1223 C.ar      1 <0>        -0.0690
     15 C12         0.7816   -5.2610    2.2902 C.ar      1 <0>        -0.0723
     16 C13         1.6336   -6.3992    4.5141 C.3       1 <0>        -0.0024
     17 C14         3.0269   -6.8502    4.8759 C.2       1 <0>        -0.2339
     18 C15         3.8593   -6.5590    3.7827 C.2       1 <0>         0.0727
     19 N3          5.0826   -6.9495    4.0868 N.2       1 <0>        -0.2383
     20 H1          5.8300   -7.8630    5.8491 H         1 <0>         0.4505
     21 N4          5.0666   -7.4979    5.3750 N.pl3     1 <0>        -0.4507
     22 C16         3.7888   -7.4277    5.8459 C.2       1 <0>         0.1810
     23 C17         3.3163   -7.8938    7.1690 C.2       1 <0>        -0.0820
     24 C18         4.0324   -7.6001    8.3207 C.2       1 <0>        -0.1198
     25 C19         3.5579   -8.0510    9.5223 C.2       1 <0>        -0.0447
     26 S1          2.0697   -8.9109    9.0416 S.3       1 <0>         0.1374
     27 C20         2.1592   -8.6198    7.2830 C.2       1 <0>        -0.1375
     28 C21         4.1136   -7.8779   10.8306 C.1       1 <0>        -0.0843
     29 C22         4.5693   -7.7360   11.9033 C.1       1 <0>        -0.1132
     30 C23         5.1405   -7.5581   13.2482 C.3       1 <0>         0.1742
     31 O2          4.3032   -8.2023   14.2104 O.3       1 <0>        -0.3110
     32 C24         4.6910   -8.1322   15.5110 C.ar      1 <0>         0.1250
     33 C25         5.8505   -7.4523   15.8547 C.ar      1 <0>        -0.2095
     34 C26         6.2422   -7.3821   17.1776 C.ar      1 <0>        -0.0787
     35 C27         5.4801   -7.9891   18.1587 C.ar      1 <0>        -0.1536
     36 C28         4.3244   -8.6677   17.8187 C.ar      1 <0>        -0.0790
     37 C29         3.9250   -8.7355   16.4979 C.ar      1 <0>        -0.1486
     38 H2          1.0048    1.8381    0.0023 H         1 <0>         0.1004
     39 H3         -0.5450    1.8219   -0.8730 H         1 <0>         0.0766
     40 H4         -0.5280    1.8123    0.9069 H         1 <0>         0.0760
     41 H5         -1.6904   -0.7109    1.0098 H         1 <0>         0.0994
     42 H6         -1.9620   -0.2359   -0.6823 H         1 <0>         0.1274
     43 H7         -1.9631   -2.7443   -0.2773 H         1 <0>         0.1567
     44 H8         -0.7823   -2.1941   -1.4938 H         1 <0>         0.1418
     45 H9          2.0994   -2.4411    0.6370 H         1 <0>         0.1657
     46 H10         1.5594   -2.4440   -1.0565 H         1 <0>         0.1629
     47 H11        -0.8638   -4.6451    0.3330 H         1 <0>         0.1461
     48 H12         0.3810   -4.3860   -0.9126 H         1 <0>         0.1421
     49 H13         2.7398   -4.5480   -0.3644 H         1 <0>         0.1379
     50 H14         4.4376   -5.5389    1.1105 H         1 <0>         0.1413
     51 H15        -0.2443   -5.1786    2.6175 H         1 <0>         0.1391
     52 H16         1.2931   -5.6358    5.2136 H         1 <0>         0.1017
     53 H17         0.9495   -7.2478    4.5234 H         1 <0>         0.1018
     54 H18         4.9464   -7.0272    8.2697 H         1 <0>         0.1414
     55 H19         1.4774   -8.9359    6.5073 H         1 <0>         0.1978
     56 H20         6.1370   -7.9985   13.2808 H         1 <0>         0.0976
     57 H21         5.2057   -6.4944   13.4774 H         1 <0>         0.0967
     58 H22         6.4465   -6.9787   15.0887 H         1 <0>         0.1291
     59 H23         7.1448   -6.8530   17.4456 H         1 <0>         0.1278
     60 H24         5.7883   -7.9334   19.1923 H         1 <0>         0.1267
     61 H25         3.7310   -9.1412   18.5868 H         1 <0>         0.1319
     62 H26         3.0199   -9.2619   16.2334 H         1 <0>         0.1313
     63 H27        -0.1242   -2.5718    1.3399 H         1 <0>         0.4294
@<TRIPOS>BOND
     1    1    2 1
     2    1   38 1
     3    1   39 1
     4    1   40 1
     5    2    7 am
     6    2    3 1
     7    3    4 1
     8    3   41 1
     9    3   42 1
    10    4    5 1
    11    4   43 1
    12    4   44 1
    13    5    6 1
    14    5    9 1
    15    5   63 1
    16    6    7 1
    17    6   45 1
    18    6   46 1
    19    7    8 2
    20    9   10 1
    21    9   47 1
    22    9   48 1
    23   10   15 ar
    24   10   11 ar
    25   11   12 ar
    26   11   49 1
    27   12   13 ar
    28   12   50 1
    29   13   14 ar
    30   13   18 1
    31   14   15 ar
    32   14   16 1
    33   15   51 1
    34   16   52 1
    35   16   53 1
    36   16   17 1
    37   17   18 1
    38   17   22 2
    39   18   19 2
    40   19   21 1
    41   20   21 1
    42   21   22 1
    43   22   23 1
    44   23   27 2
    45   23   24 1
    46   24   25 2
    47   24   54 1
    48   25   26 1
    49   25   28 1
    50   26   27 1
    51   27   55 1
    52   28   29 3
    53   29   30 1
    54   30   31 1
    55   30   56 1
    56   30   57 1
    57   31   32 1
    58   32   37 ar
    59   32   33 ar
    60   33   34 ar
    61   33   58 1
    62   34   35 ar
    63   34   59 1
    64   35   36 ar
    65   35   60 1
    66   36   37 ar
    67   36   61 1
    68   37   62 1
@<TRIPOS>MOLECULE
CHEMBL225278__1
   63    68     0     0     0
SMALL
USER_CHARGES

@<TRIPOS>ATOM
      1 C1         -0.0178    1.4608    0.0101 C.3       1 <0>         0.0667
      2 N1          0.0021   -0.0041    0.0020 N.am      1 <0>        -0.6128
      3 C2         -1.2697   -0.7229    0.0044 C.3       1 <0>         0.0848
      4 C3         -1.0500   -2.1710   -0.4375 C.3       1 <0>        -0.0212
      5 N2          0.0419   -2.7498    0.3607 N.4       1 <0>        -0.3864
      6 C4          1.3085   -2.1272   -0.0442 C.3       1 <0>        -0.0181
      7 C5          1.1842   -0.6305   -0.0126 C.2       1 <0>         0.4989
      8 O1          2.1966    0.0371    0.0046 O.2       1 <0>        -0.4890
      9 C6          0.1086   -4.1984    0.1260 C.3       1 <0>         0.0469
     10 C7          1.1449   -4.8074    1.0349 C.ar      1 <0>        -0.1607
     11 C8          2.4595   -4.9067    0.6146 C.ar      1 <0>        -0.0933
     12 C9          3.4141   -5.4626    1.4400 C.ar      1 <0>        -0.0917
     13 C10         3.0538   -5.9279    2.7074 C.ar      1 <0>         0.0104
     14 C11         1.7265   -5.8224    3.1207 C.ar      1 <0>        -0.0693
     15 C12         0.7812   -5.2612    2.2909 C.ar      1 <0>        -0.0676
     16 C13         1.6509   -6.4013    4.5122 C.3       1 <0>        -0.0143
     17 C14         3.0542   -6.8438    4.8492 C.2       1 <0>        -0.2072
     18 C15         3.8516   -6.5574    3.7828 C.2       1 <0>         0.0789
     19 N3          5.1174   -6.9633    4.1013 N.pl3     1 <0>        -0.4481
     20 H1          5.9004   -6.8868    3.5340 H         1 <0>         0.4449
     21 N4          5.0853   -7.5080    5.3907 N.2       1 <0>        -0.2404
     22 C16         3.8504   -7.4374    5.8415 C.2       1 <0>         0.1628
     23 C17         3.3807   -7.9051    7.1703 C.2       1 <0>        -0.0547
     24 C18         3.9367   -9.0290    7.7610 C.2       1 <0>        -0.1090
     25 C19         3.4736   -9.4241    8.9871 C.2       1 <0>        -0.0507
     26 S1          2.2257   -8.1953    9.3312 S.3       1 <0>         0.1286
     27 C20         2.3943   -7.2315    7.8385 C.2       1 <0>        -0.1504
     28 C21         3.8849  -10.5375    9.7882 C.1       1 <0>        -0.0765
     29 C22         4.2221  -11.4504   10.4449 C.1       1 <0>        -0.1204
     30 C23         4.6449  -12.5950   11.2683 C.3       1 <0>         0.1762
     31 O2          3.8834  -12.6191   12.4772 O.3       1 <0>        -0.3104
     32 C24         4.1516  -13.6210   13.3554 C.ar      1 <0>         0.1259
     33 C25         5.1316  -14.5581   13.0623 C.ar      1 <0>        -0.2097
     34 C26         5.4028  -15.5753   13.9568 C.ar      1 <0>        -0.0791
     35 C27         4.6980  -15.6601   15.1434 C.ar      1 <0>        -0.1543
     36 C28         3.7204  -14.7276   15.4377 C.ar      1 <0>        -0.0790
     37 C29         3.4498  -13.7049   14.5492 C.ar      1 <0>        -0.1484
     38 H2          1.0048    1.8381    0.0023 H         1 <0>         0.1005
     39 H3         -0.5450    1.8219   -0.8730 H         1 <0>         0.0769
     40 H4         -0.5280    1.8123    0.9069 H         1 <0>         0.0765
     41 H5         -1.6904   -0.7109    1.0098 H         1 <0>         0.0999
     42 H6         -1.9620   -0.2359   -0.6823 H         1 <0>         0.1278
     43 H7         -1.9631   -2.7443   -0.2773 H         1 <0>         0.1571
     44 H8         -0.7823   -2.1941   -1.4938 H         1 <0>         0.1419
     45 H9          2.0994   -2.4411    0.6370 H         1 <0>         0.1648
     46 H10         1.5594   -2.4440   -1.0565 H         1 <0>         0.1625
     47 H11        -0.8638   -4.6451    0.3330 H         1 <0>         0.1468
     48 H12         0.3810   -4.3860   -0.9126 H         1 <0>         0.1423
     49 H13         2.7392   -4.5474   -0.3647 H         1 <0>         0.1380
     50 H14         4.4388   -5.5386    1.1072 H         1 <0>         0.1376
     51 H15        -0.2445   -5.1787    2.6188 H         1 <0>         0.1410
     52 H16         1.3164   -5.6412    5.2182 H         1 <0>         0.1074
     53 H17         0.9732   -7.2549    4.5283 H         1 <0>         0.1109
     54 H18         4.7196   -9.5822    7.2635 H         1 <0>         0.1446
     55 H19         1.8554   -6.3448    7.5388 H         1 <0>         0.1941
     56 H20         4.4798  -13.5203   10.7163 H         1 <0>         0.0957
     57 H21         5.7039  -12.4988   11.5078 H         1 <0>         0.0960
     58 H22         5.6819  -14.4927   12.1353 H         1 <0>         0.1290
     59 H23         6.1656  -16.3050   13.7291 H         1 <0>         0.1273
     60 H24         4.9111  -16.4562   15.8413 H         1 <0>         0.1262
     61 H25         3.1710  -14.7962   16.3650 H         1 <0>         0.1318
     62 H26         2.6892  -12.9743   14.7816 H         1 <0>         0.1317
     63 H27        -0.1242   -2.5718    1.3399 H         1 <0>         0.4296
@<TRIPOS>BOND
     1    1    2 1
     2    1   38 1
     3    1   39 1
     4    1   40 1
     5    2    7 am
     6    2    3 1
     7    3    4 1
     8    3   41 1
     9    3   42 1
    10    4    5 1
    11    4   43 1
    12    4   44 1
    13    5    6 1
    14    5    9 1
    15    5   63 1
    16    6    7 1
    17    6   45 1
    18    6   46 1
    19    7    8 2
    20    9   10 1
    21    9   47 1
    22    9   48 1
    23   10   15 ar
    24   10   11 ar
    25   11   12 ar
    26   11   49 1
    27   12   13 ar
    28   12   50 1
    29   13   18 1
    30   13   14 ar
    31   14   15 ar
    32   14   16 1
    33   15   51 1
    34   16   17 1
    35   16   52 1
    36   16   53 1
    37   17   22 1
    38   17   18 2
    39   18   19 1
    40   19   20 1
    41   19   21 1
    42   21   22 2
    43   22   23 1
    44   23   27 2
    45   23   24 1
    46   24   25 2
    47   24   54 1
    48   25   26 1
    49   25   28 1
    50   26   27 1
    51   27   55 1
    52   28   29 3
    53   29   30 1
    54   30   31 1
    55   30   56 1
    56   30   57 1
    57   31   32 1
    58   32   37 ar
    59   32   33 ar
    60   33   34 ar
    61   33   58 1
    62   34   35 ar
    63   34   59 1
    64   35   36 ar
    65   35   60 1
    66   36   37 ar
    67   36   61 1
    68   37   62 1
@<TRIPOS>MOLECULE
CHEMBL225334
   63    68     0     0     0
SMALL
USER_CHARGES

@<TRIPOS>ATOM
      1 C1         -0.0178    1.4648    0.0101 C.3       1 <0>        -0.0484
      2 N1          0.0021   -0.0041    0.0020 N.4       1 <0>        -0.3883
      3 C2         -1.3771   -0.5157    0.0267 C.3       1 <0>        -0.0205
      4 C3         -1.3487   -2.0226   -0.2359 C.3       1 <0>         0.0817
      5 N2         -0.3904   -2.6653    0.6600 N.am      1 <0>        -0.6042
      6 C4          0.5616   -1.9831    1.3066 C.2       1 <0>         0.4984
      7 O1          1.3350   -2.5924    2.0148 O.2       1 <0>        -0.4832
      8 C5          0.7118   -0.4927    1.1908 C.3       1 <0>        -0.0161
      9 C6         -0.4754   -4.1143    0.8584 C.3       1 <0>         0.1530
     10 C7          0.3814   -4.8128   -0.1659 C.ar      1 <0>        -0.1134
     11 C8         -0.1593   -5.1756   -1.3868 C.ar      1 <0>        -0.1045
     12 C9          0.6176   -5.8150   -2.3298 C.ar      1 <0>        -0.0966
     13 C10         1.9575   -6.0983   -2.0526 C.ar      1 <0>        -0.0189
     14 C11         2.4920   -5.7277   -0.8193 C.ar      1 <0>        -0.0710
     15 C12         1.7093   -5.0851    0.1141 C.ar      1 <0>        -0.0732
     16 C13         3.9374   -6.1611   -0.8174 C.3       1 <0>        -0.0112
     17 C14         4.1730   -6.8100   -2.1598 C.2       1 <0>        -0.2166
     18 C15         3.0057   -6.7608   -2.8599 C.2       1 <0>         0.0912
     19 N3          3.2333   -7.3513   -4.0714 N.pl3     1 <0>        -0.4527
     20 H1          2.5833   -7.4620   -4.7829 H         1 <0>         0.4425
     21 N4          4.5696   -7.7677   -4.1054 N.2       1 <0>        -0.2498
     22 C16         5.1352   -7.4443   -2.9615 C.2       1 <0>         0.1616
     23 C17         6.5476   -7.7055   -2.5842 C.2       1 <0>        -0.0524
     24 C18         7.1937   -8.8531   -3.0161 C.2       1 <0>        -0.1067
     25 C19         8.4961   -9.0532   -2.6448 C.2       1 <0>        -0.0538
     26 S1          8.8346   -7.6007   -1.6642 S.3       1 <0>         0.1236
     27 C20         7.2385   -6.8148   -1.8079 C.2       1 <0>        -0.1488
     28 C21         9.3641  -10.1471   -2.9618 C.1       1 <0>        -0.0730
     29 C22        10.0757  -11.0439   -3.2217 C.1       1 <0>        -0.1246
     30 C23        10.9680  -12.1684   -3.5476 C.3       1 <0>         0.1772
     31 O2         12.2447  -11.9542   -2.9425 O.3       1 <0>        -0.3104
     32 C24        13.1920  -12.9070   -3.1468 C.ar      1 <0>         0.1264
     33 C25        12.9005  -14.0223   -3.9187 C.ar      1 <0>        -0.2098
     34 C26        13.8653  -14.9892   -4.1254 C.ar      1 <0>        -0.0791
     35 C27        15.1204  -14.8463   -3.5632 C.ar      1 <0>        -0.1547
     36 C28        15.4133  -13.7359   -2.7932 C.ar      1 <0>        -0.0791
     37 C29        14.4539  -12.7632   -2.5887 C.ar      1 <0>        -0.1487
     38 H2          1.0047    1.8421    0.0024 H         1 <0>         0.1294
     39 H3         -0.5450    1.8259   -0.8730 H         1 <0>         0.1305
     40 H4         -0.5280    1.8163    0.9069 H         1 <0>         0.1268
     41 H5         -1.8207   -0.3233    1.0036 H         1 <0>         0.1415
     42 H6         -1.9641   -0.0210   -0.7471 H         1 <0>         0.1548
     43 H7         -2.3411   -2.4390   -0.0632 H         1 <0>         0.1279
     44 H8         -1.0560   -2.2045   -1.2699 H         1 <0>         0.0987
     45 H9          1.7693   -0.2414    1.1090 H         1 <0>         0.1662
     46 H10         0.2972   -0.0176    2.0799 H         1 <0>         0.1632
     47 H11        -0.1229   -4.3653    1.8589 H         1 <0>         0.1082
     48 H12        -1.5107   -4.4363    0.7466 H         1 <0>         0.1023
     49 H13        -1.1949   -4.9572   -1.6021 H         1 <0>         0.1282
     50 H14         0.1909   -6.0968   -3.2810 H         1 <0>         0.1272
     51 H15         2.1306   -4.7972    1.0660 H         1 <0>         0.1370
     52 H16         4.5895   -5.2958   -0.6982 H         1 <0>         0.1002
     53 H17         4.1138   -6.8791   -0.0164 H         1 <0>         0.1055
     54 H18         6.6798   -9.5754   -3.6330 H         1 <0>         0.1443
     55 H19         6.9036   -5.8775   -1.3890 H         1 <0>         0.1938
     56 H20        10.5374  -13.0954   -3.1690 H         1 <0>         0.0954
     57 H21        11.0855  -12.2374   -4.6290 H         1 <0>         0.0954
     58 H22        11.9200  -14.1347   -4.3574 H         1 <0>         0.1291
     59 H23        13.6388  -15.8576   -4.7262 H         1 <0>         0.1271
     60 H24        15.8732  -15.6035   -3.7257 H         1 <0>         0.1260
     61 H25        16.3943  -13.6268   -2.3549 H         1 <0>         0.1316
     62 H26        14.6845  -11.8939   -1.9908 H         1 <0>         0.1316
     63 H27         0.4707   -0.3311   -0.8296 H         1 <0>         0.4319
@<TRIPOS>BOND
     1    1    2 1
     2    1   38 1
     3    1   39 1
     4    1   40 1
     5    2    8 1
     6    2    3 1
     7    2   63 1
     8    3    4 1
     9    3   41 1
    10    3   42 1
    11    4    5 1
    12    4   43 1
    13    4   44 1
    14    5    6 am
    15    5    9 1
    16    6    7 2
    17    6    8 1
    18    8   45 1
    19    8   46 1
    20    9   10 1
    21    9   47 1
    22    9   48 1
    23   10   15 ar
    24   10   11 ar
    25   11   12 ar
    26   11   49 1
    27   12   13 ar
    28   12   50 1
    29   13   18 1
    30   13   14 ar
    31   14   15 ar
    32   14   16 1
    33   15   51 1
    34   16   17 1
    35   16   52 1
    36   16   53 1
    37   17   22 1
    38   17   18 2
    39   18   19 1
    40   19   20 1
    41   19   21 1
    42   21   22 2
    43   22   23 1
    44   23   27 2
    45   23   24 1
    46   24   25 2
    47   24   54 1
    48   25   26 1
    49   25   28 1
    50   26   27 1
    51   27   55 1
    52   28   29 3
    53   29   30 1
    54   30   31 1
    55   30   56 1
    56   30   57 1
    57   31   32 1
    58   32   37 ar
    59   32   33 ar
    60   33   34 ar
    61   33   58 1
    62   34   35 ar
    63   34   59 1
    64   35   36 ar
    65   35   60 1
    66   36   37 ar
    67   36   61 1
    68   37   62 1
@<TRIPOS>MOLECULE
CHEMBL225334__1
   62    67     0     0     0
SMALL
USER_CHARGES

@<TRIPOS>ATOM
      1 C1         -0.0178    1.4648    0.0101 C.3       1 <0>         0.0215
      2 N1          0.0021   -0.0041    0.0020 N.3       1 <0>        -0.5368
      3 C2         -1.3642   -0.5503    0.0376 C.3       1 <0>         0.0330
      4 C3         -1.3041   -2.0452   -0.2821 C.3       1 <0>         0.1166
      5 N2         -0.3011   -2.6961    0.5557 N.am      1 <0>        -0.5969
      6 C4          0.6644   -2.0225    1.1899 C.2       1 <0>         0.5244
      7 O1          1.4760   -2.6455    1.8412 O.2       1 <0>        -0.5428
      8 C5          0.7860   -0.5261    1.1294 C.3       1 <0>         0.0382
      9 C6         -0.3551   -4.1521    0.7088 C.3       1 <0>         0.1499
     10 C7          0.4734   -4.8017   -0.3695 C.ar      1 <0>        -0.0929
     11 C8         -0.1070   -5.1337   -1.5806 C.ar      1 <0>        -0.1066
     12 C9          0.6459   -5.7280   -2.5717 C.ar      1 <0>        -0.0866
     13 C10         1.9985   -5.9962   -2.3539 C.ar      1 <0>        -0.0168
     14 C11         2.5737   -5.6588   -1.1325 C.ar      1 <0>        -0.0744
     15 C12         1.8143   -5.0599   -0.1488 C.ar      1 <0>        -0.0758
     16 C13         4.0274   -6.0613   -1.1815 C.3       1 <0>         0.0012
     17 C14         4.2492   -6.6659   -2.5457 C.2       1 <0>        -0.2294
     18 C15         3.0238   -6.6172   -3.2304 C.2       1 <0>         0.0968
     19 N3          3.2046   -7.1442   -4.4267 N.2       1 <0>        -0.2543
     20 H1          4.9499   -7.9594   -5.3144 H         1 <0>         0.4449
     21 N4          4.5423   -7.5420   -4.5395 N.pl3     1 <0>        -0.4618
     22 C16         5.1713   -7.2385   -3.3683 C.2       1 <0>         0.1648
     23 C17         6.5955   -7.4859   -3.0495 C.2       1 <0>        -0.0741
     24 C18         7.5907   -7.1752   -3.9651 C.2       1 <0>        -0.1127
     25 C19         8.8938   -7.4206   -3.6276 C.2       1 <0>        -0.0562
     26 S1          8.7362   -8.1048   -1.9868 S.3       1 <0>         0.1211
     27 C20         6.9593   -8.0216   -1.8413 C.2       1 <0>        -0.1322
     28 C21        10.0804   -7.1886   -4.3950 C.1       1 <0>        -0.0693
     29 C22        11.0532   -6.9983   -5.0240 C.1       1 <0>        -0.1290
     30 C23        12.2730   -6.7598   -5.8128 C.3       1 <0>         0.1781
     31 O2         13.4156   -7.1692   -5.0586 O.3       1 <0>        -0.3104
     32 C24        14.6308   -7.0152   -5.6471 C.ar      1 <0>         0.1275
     33 C25        14.7221   -6.4758   -6.9220 C.ar      1 <0>        -0.2098
     34 C26        15.9586   -6.3198   -7.5179 C.ar      1 <0>        -0.0791
     35 C27        17.1047   -6.7013   -6.8449 C.ar      1 <0>        -0.1558
     36 C28        17.0163   -7.2396   -5.5744 C.ar      1 <0>        -0.0794
     37 C29        15.7826   -7.3919   -4.9718 C.ar      1 <0>        -0.1492
     38 H2          1.0047    1.8421    0.0024 H         1 <0>         0.0743
     39 H3         -0.5450    1.8259   -0.8730 H         1 <0>         0.0761
     40 H4         -0.5280    1.8163    0.9069 H         1 <0>         0.0316
     41 H5         -1.7900   -0.4057    1.0306 H         1 <0>         0.0476
     42 H6         -1.9804   -0.0423   -0.7042 H         1 <0>         0.0986
     43 H7         -2.2792   -2.4947   -0.0942 H         1 <0>         0.0826
     44 H8         -1.0417   -2.1803   -1.3314 H         1 <0>         0.0764
     45 H9          1.8332   -0.2532    0.9991 H         1 <0>         0.1144
     46 H10         0.4142   -0.0951    2.0589 H         1 <0>         0.0727
     47 H11         0.0390   -4.4295    1.6865 H         1 <0>         0.0974
     48 H12        -1.3886   -4.4881    0.6250 H         1 <0>         0.0895
     49 H13        -1.1533   -4.9270   -1.7505 H         1 <0>         0.1270
     50 H14         0.1891   -5.9860   -3.5158 H         1 <0>         0.1268
     51 H15         2.2662   -4.7961    0.7960 H         1 <0>         0.1356
     52 H16         4.6635   -5.1857   -1.0515 H         1 <0>         0.0947
     53 H17         4.2392   -6.7967   -0.4054 H         1 <0>         0.0939
     54 H18         7.3417   -6.7484   -4.9255 H         1 <0>         0.1410
     55 H19         6.3316   -8.3185   -1.0142 H         1 <0>         0.1990
     56 H20        12.2246   -7.3327   -6.7389 H         1 <0>         0.0953
     57 H21        12.3530   -5.6981   -6.0461 H         1 <0>         0.0956
     58 H22        13.8272   -6.1783   -7.4483 H         1 <0>         0.1295
     59 H23        16.0302   -5.8999   -8.5103 H         1 <0>         0.1269
     60 H24        18.0704   -6.5789   -7.3126 H         1 <0>         0.1255
     61 H25        17.9129   -7.5371   -5.0510 H         1 <0>         0.1311
     62 H26        15.7145   -7.8083   -3.9776 H         1 <0>         0.1314
@<TRIPOS>BOND
     1    1    2 1
     2    1   38 1
     3    1   39 1
     4    1   40 1
     5    2    8 1
     6    2    3 1
     7    3    4 1
     8    3   41 1
     9    3   42 1
    10    4    5 1
    11    4   43 1
    12    4   44 1
    13    5    6 am
    14    5    9 1
    15    6    7 2
    16    6    8 1
    17    8   45 1
    18    8   46 1
    19    9   10 1
    20    9   47 1
    21    9   48 1
    22   10   15 ar
    23   10   11 ar
    24   11   12 ar
    25   11   49 1
    26   12   13 ar
    27   12   50 1
    28   13   14 ar
    29   13   18 1
    30   14   15 ar
    31   14   16 1
    32   15   51 1
    33   16   52 1
    34   16   53 1
    35   16   17 1
    36   17   18 1
    37   17   22 2
    38   18   19 2
    39   19   21 1
    40   20   21 1
    41   21   22 1
    42   22   23 1
    43   23   27 2
    44   23   24 1
    45   24   25 2
    46   24   54 1
    47   25   26 1
    48   25   28 1
    49   26   27 1
    50   27   55 1
    51   28   29 3
    52   29   30 1
    53   30   31 1
    54   30   56 1
    55   30   57 1
    56   31   32 1
    57   32   37 ar
    58   32   33 ar
    59   33   34 ar
    60   33   58 1
    61   34   35 ar
    62   34   59 1
    63   35   36 ar
    64   35   60 1
    65   36   37 ar
    66   36   61 1
    67   37   62 1
@<TRIPOS>MOLECULE
CHEMBL225334__2
   62    67     0     0     0
SMALL
USER_CHARGES

@<TRIPOS>ATOM
      1 C1         -0.0178    1.4648    0.0101 C.3       1 <0>         0.0213
      2 N1          0.0021   -0.0041    0.0020 N.3       1 <0>        -0.5369
      3 C2         -1.3642   -0.5503    0.0376 C.3       1 <0>         0.0327
      4 C3         -1.3041   -2.0452   -0.2821 C.3       1 <0>         0.1170
      5 N2         -0.3011   -2.6961    0.5557 N.am      1 <0>        -0.5975
      6 C4          0.6644   -2.0225    1.1899 C.2       1 <0>         0.5244
      7 O1          1.4760   -2.6455    1.8412 O.2       1 <0>        -0.5421
      8 C5          0.7860   -0.5261    1.1294 C.3       1 <0>         0.0380
      9 C6         -0.3551   -4.1521    0.7088 C.3       1 <0>         0.1491
     10 C7          0.4734   -4.8017   -0.3695 C.ar      1 <0>        -0.0915
     11 C8         -0.1073   -5.1336   -1.5808 C.ar      1 <0>        -0.1045
     12 C9          0.6436   -5.7283   -2.5729 C.ar      1 <0>        -0.0956
     13 C10         1.9974   -5.9972   -2.3556 C.ar      1 <0>        -0.0360
     14 C11         2.5722   -5.6580   -1.1314 C.ar      1 <0>        -0.0717
     15 C12         1.8151   -5.0600   -0.1485 C.ar      1 <0>        -0.0726
     16 C13         4.0235   -6.0660   -1.1979 C.3       1 <0>        -0.0083
     17 C14         4.2184   -6.6664   -2.5691 C.2       1 <0>        -0.2231
     18 C15         3.0248   -6.6146   -3.2231 C.2       1 <0>         0.1046
     19 N3          3.2158   -7.1612   -4.4613 N.pl3     1 <0>        -0.4554
     20 H1          2.5412   -7.2598   -5.1513 H         1 <0>         0.4410
     21 N4          4.5564   -7.5529   -4.5589 N.2       1 <0>        -0.2592
     22 C16         5.1597   -7.2574   -3.4268 C.2       1 <0>         0.1588
     23 C17         6.5894   -7.5061   -3.1114 C.2       1 <0>        -0.0514
     24 C18         7.2371   -8.6276   -3.6052 C.2       1 <0>        -0.0999
     25 C19         8.5557   -8.8171   -3.2896 C.2       1 <0>        -0.0649
     26 S1          8.9076   -7.3919   -2.2745 S.3       1 <0>         0.1172
     27 C20         7.2948   -6.6295   -2.3322 C.2       1 <0>        -0.1412
     28 C21         9.4286   -9.8848   -3.6751 C.1       1 <0>        -0.0616
     29 C22        10.1442  -10.7602   -3.9912 C.1       1 <0>        -0.1378
     30 C23        11.0415  -11.8577   -4.3875 C.3       1 <0>         0.1801
     31 O2         12.3366  -11.6413   -3.8237 O.3       1 <0>        -0.3099
     32 C24        13.2907  -12.5703   -4.0949 C.ar      1 <0>         0.1285
     33 C25        12.9882  -13.6646   -4.8921 C.ar      1 <0>        -0.2101
     34 C26        13.9599  -14.6073   -5.1668 C.ar      1 <0>        -0.0794
     35 C27        15.2330  -14.4612   -4.6474 C.ar      1 <0>        -0.1566
     36 C28        15.5369  -13.3716   -3.8522 C.ar      1 <0>        -0.0796
     37 C29        14.5704  -12.4229   -3.5797 C.ar      1 <0>        -0.1492
     38 H2          1.0047    1.8421    0.0024 H         1 <0>         0.0747
     39 H3         -0.5450    1.8259   -0.8730 H         1 <0>         0.0762
     40 H4         -0.5280    1.8163    0.9069 H         1 <0>         0.0319
     41 H5         -1.7900   -0.4057    1.0306 H         1 <0>         0.0480
     42 H6         -1.9804   -0.0423   -0.7042 H         1 <0>         0.0987
     43 H7         -2.2792   -2.4947   -0.0942 H         1 <0>         0.0824
     44 H8         -1.0417   -2.1803   -1.3314 H         1 <0>         0.0756
     45 H9          1.8332   -0.2532    0.9991 H         1 <0>         0.1149
     46 H10         0.4142   -0.0951    2.0589 H         1 <0>         0.0733
     47 H11         0.0390   -4.4295    1.6865 H         1 <0>         0.0983
     48 H12        -1.3886   -4.4881    0.6250 H         1 <0>         0.0897
     49 H13        -1.1536   -4.9263   -1.7499 H         1 <0>         0.1273
     50 H14         0.1857   -5.9862   -3.5164 H         1 <0>         0.1230
     51 H15         2.2675   -4.7960    0.7960 H         1 <0>         0.1375
     52 H16         4.6655   -5.1939   -1.0744 H         1 <0>         0.0989
     53 H17         4.2416   -6.8066   -0.4285 H         1 <0>         0.1012
     54 H18         6.7119   -9.3381   -4.2262 H         1 <0>         0.1437
     55 H19         6.9609   -5.7123   -1.8700 H         1 <0>         0.1964
     56 H20        10.6406  -12.8039   -4.0242 H         1 <0>         0.0940
     57 H21        11.1190  -11.8892   -5.4743 H         1 <0>         0.0940
     58 H22        11.9938  -13.7796   -5.2974 H         1 <0>         0.1295
     59 H23        13.7249  -15.4594   -5.7873 H         1 <0>         0.1264
     60 H24        15.9912  -15.1994   -4.8630 H         1 <0>         0.1250
     61 H25        16.5319  -13.2599   -3.4475 H         1 <0>         0.1308
     62 H26        14.8095  -11.5698   -2.9622 H         1 <0>         0.1318
@<TRIPOS>BOND
     1    1    2 1
     2    1   38 1
     3    1   39 1
     4    1   40 1
     5    2    8 1
     6    2    3 1
     7    3    4 1
     8    3   41 1
     9    3   42 1
    10    4    5 1
    11    4   43 1
    12    4   44 1
    13    5    6 am
    14    5    9 1
    15    6    7 2
    16    6    8 1
    17    8   45 1
    18    8   46 1
    19    9   10 1
    20    9   47 1
    21    9   48 1
    22   10   15 ar
    23   10   11 ar
    24   11   12 ar
    25   11   49 1
    26   12   13 ar
    27   12   50 1
    28   13   18 1
    29   13   14 ar
    30   14   15 ar
    31   14   16 1
    32   15   51 1
    33   16   17 1
    34   16   52 1
    35   16   53 1
    36   17   22 1
    37   17   18 2
    38   18   19 1
    39   19   20 1
    40   19   21 1
    41   21   22 2
    42   22   23 1
    43   23   27 2
    44   23   24 1
    45   24   25 2
    46   24   54 1
    47   25   26 1
    48   25   28 1
    49   26   27 1
    50   27   55 1
    51   28   29 3
    52   29   30 1
    53   30   31 1
    54   30   56 1
    55   30   57 1
    56   31   32 1
    57   32   37 ar
    58   32   33 ar
    59   33   34 ar
    60   33   58 1
    61   34   35 ar
    62   34   59 1
    63   35   36 ar
    64   35   60 1
    65   36   37 ar
    66   36   61 1
    67   37   62 1
@<TRIPOS>MOLECULE
CHEMBL225334__3
   63    68     0     0     0
SMALL
USER_CHARGES

@<TRIPOS>ATOM
      1 C1         -0.0178    1.4648    0.0101 C.3       1 <0>        -0.0482
      2 N1          0.0021   -0.0041    0.0020 N.4       1 <0>        -0.3884
      3 C2         -1.3771   -0.5157    0.0267 C.3       1 <0>        -0.0203
      4 C3         -1.3487   -2.0226   -0.2359 C.3       1 <0>         0.0813
      5 N2         -0.3904   -2.6653    0.6600 N.am      1 <0>        -0.6037
      6 C4          0.5616   -1.9831    1.3066 C.2       1 <0>         0.4984
      7 O1          1.3350   -2.5924    2.0148 O.2       1 <0>        -0.4840
      8 C5          0.7118   -0.4927    1.1908 C.3       1 <0>        -0.0160
      9 C6         -0.4754   -4.1143    0.8584 C.3       1 <0>         0.1535
     10 C7          0.3814   -4.8128   -0.1659 C.ar      1 <0>        -0.1141
     11 C8         -0.1590   -5.1756   -1.3866 C.ar      1 <0>        -0.1070
     12 C9          0.6198   -5.8147   -2.3285 C.ar      1 <0>        -0.0873
     13 C10         1.9585   -6.0973   -2.0509 C.ar      1 <0>         0.0002
     14 C11         2.4935   -5.7287   -0.8204 C.ar      1 <0>        -0.0724
     15 C12         1.7085   -5.0851    0.1138 C.ar      1 <0>        -0.0770
     16 C13         3.9408   -6.1559   -0.8010 C.3       1 <0>        -0.0002
     17 C14         4.2029   -6.8092   -2.1353 C.2       1 <0>        -0.2341
     18 C15         3.0049   -6.7636   -2.8672 C.2       1 <0>         0.0844
     19 N3          3.2211   -7.3331   -4.0379 N.2       1 <0>        -0.2483
     20 H1          4.9839   -8.2055   -4.8316 H         1 <0>         0.4480
     21 N4          4.5549   -7.7559   -4.0868 N.pl3     1 <0>        -0.4563
     22 C16         5.1449   -7.4237   -2.9032 C.2       1 <0>         0.1748
     23 C17         6.5518   -7.6833   -2.5228 C.2       1 <0>        -0.0801
     24 C18         7.5857   -7.4194   -3.4097 C.2       1 <0>        -0.1181
     25 C19         8.8708   -7.6743   -3.0153 C.2       1 <0>        -0.0493
     26 S1          8.6402   -8.3008   -1.3600 S.3       1 <0>         0.1343
     27 C20         6.8608   -8.1841   -1.2848 C.2       1 <0>        -0.1355
     28 C21        10.0891   -7.4872   -3.7443 C.1       1 <0>        -0.0798
     29 C22        11.0879   -7.3338   -4.3419 C.1       1 <0>        -0.1186
     30 C23        12.3401   -7.1414   -5.0913 C.3       1 <0>         0.1757
     31 O2         13.4465   -7.5438   -4.2813 O.3       1 <0>        -0.3105
     32 C24        14.6854   -7.4291   -4.8281 C.ar      1 <0>         0.1254
     33 C25        14.8335   -6.9340   -6.1156 C.ar      1 <0>        -0.2100
     34 C26        16.0940   -6.8180   -6.6690 C.ar      1 <0>        -0.0793
     35 C27        17.2073   -7.1952   -5.9410 C.ar      1 <0>        -0.1539
     36 C28        17.0623   -7.6894   -4.6578 C.ar      1 <0>        -0.0786
     37 C29        15.8045   -7.8016   -4.0977 C.ar      1 <0>        -0.1481
     38 H2          1.0047    1.8421    0.0024 H         1 <0>         0.1290
     39 H3         -0.5450    1.8259   -0.8730 H         1 <0>         0.1304
     40 H4         -0.5280    1.8163    0.9069 H         1 <0>         0.1265
     41 H5         -1.8207   -0.3233    1.0036 H         1 <0>         0.1412
     42 H6         -1.9641   -0.0210   -0.7471 H         1 <0>         0.1546
     43 H7         -2.3411   -2.4390   -0.0632 H         1 <0>         0.1281
     44 H8         -1.0560   -2.2045   -1.2699 H         1 <0>         0.0995
     45 H9          1.7693   -0.2414    1.1090 H         1 <0>         0.1657
     46 H10         0.2972   -0.0176    2.0799 H         1 <0>         0.1628
     47 H11        -0.1229   -4.3653    1.8589 H         1 <0>         0.1074
     48 H12        -1.5107   -4.4363    0.7466 H         1 <0>         0.1021
     49 H13        -1.1946   -4.9579   -1.6026 H         1 <0>         0.1279
     50 H14         0.1942   -6.0966   -3.2802 H         1 <0>         0.1309
     51 H15         2.1293   -4.7972    1.0658 H         1 <0>         0.1351
     52 H16         4.5867   -5.2869   -0.6757 H         1 <0>         0.0951
     53 H17         4.1107   -6.8684    0.0062 H         1 <0>         0.0972
     54 H18         7.3801   -7.0209   -4.3922 H         1 <0>         0.1405
     55 H19         6.1976   -8.4432   -0.4727 H         1 <0>         0.1982
     56 H20        12.3164   -7.7440   -5.9993 H         1 <0>         0.0958
     57 H21        12.4472   -6.0895   -5.3560 H         1 <0>         0.0964
     58 H22        13.9642   -6.6399   -6.6849 H         1 <0>         0.1286
     59 H23        16.2098   -6.4327   -7.6712 H         1 <0>         0.1272
     60 H24        18.1918   -7.1041   -6.3756 H         1 <0>         0.1265
     61 H25        17.9334   -7.9837   -4.0914 H         1 <0>         0.1322
     62 H26        15.6921   -8.1835   -3.0937 H         1 <0>         0.1319
     63 H27         0.4707   -0.3311   -0.8296 H         1 <0>         0.4322
@<TRIPOS>BOND
     1    1    2 1
     2    1   38 1
     3    1   39 1
     4    1   40 1
     5    2    8 1
     6    2    3 1
     7    2   63 1
     8    3    4 1
     9    3   41 1
    10    3   42 1
    11    4    5 1
    12    4   43 1
    13    4   44 1
    14    5    6 am
    15    5    9 1
    16    6    7 2
    17    6    8 1
    18    8   45 1
    19    8   46 1
    20    9   10 1
    21    9   47 1
    22    9   48 1
    23   10   15 ar
    24   10   11 ar
    25   11   12 ar
    26   11   49 1
    27   12   13 ar
    28   12   50 1
    29   13   14 ar
    30   13   18 1
    31   14   15 ar
    32   14   16 1
    33   15   51 1
    34   16   52 1
    35   16   53 1
    36   16   17 1
    37   17   18 1
    38   17   22 2
    39   18   19 2
    40   19   21 1
    41   20   21 1
    42   21   22 1
    43   22   23 1
    44   23   27 2
    45   23   24 1
    46   24   25 2
    47   24   54 1
    48   25   26 1
    49   25   28 1
    50   26   27 1
    51   27   55 1
    52   28   29 3
    53   29   30 1
    54   30   31 1
    55   30   56 1
    56   30   57 1
    57   31   32 1
    58   32   37 ar
    59   32   33 ar
    60   33   34 ar
    61   33   58 1
    62   34   35 ar
    63   34   59 1
    64   35   36 ar
    65   35   60 1
    66   36   37 ar
    67   36   61 1
    68   37   62 1
@<TRIPOS>MOLECULE
CHEMBL390735
   63    68     0     0     0
SMALL
USER_CHARGES

@<TRIPOS>ATOM
      1 C1          0.3899   -4.4693   -3.4167 C.3       1 <0>        -0.0473
      2 N1          0.2501   -3.7308   -2.1546 N.4       1 <0>        -0.3860
      3 C2          0.9906   -4.4292   -1.0963 C.3       1 <0>        -0.0224
      4 C3          0.9411   -3.6012    0.1921 C.3       1 <0>         0.0727
      5 N2         -0.4674   -3.3268    0.5162 N.am      1 <0>        -0.6302
      6 C4         -1.3277   -2.7758   -0.5422 C.3       1 <0>         0.0887
      7 C5         -1.1711   -3.6427   -1.7959 C.3       1 <0>        -0.0204
      8 C6         -0.9558   -3.5737    1.7479 C.2       1 <0>         0.5764
      9 O1         -2.1034   -3.2763    2.0176 O.2       1 <0>        -0.4974
     10 C7         -0.0972   -4.2053    2.7697 C.ar      1 <0>        -0.1348
     11 C8          1.1883   -3.7111    3.0080 C.ar      1 <0>        -0.0966
     12 C9          1.9856   -4.2918    3.9516 C.ar      1 <0>        -0.0961
     13 C10         1.5218   -5.3876    4.6885 C.ar      1 <0>         0.0017
     14 C11         0.2371   -5.8816    4.4511 C.ar      1 <0>        -0.0707
     15 C12        -0.5699   -5.2963    3.5060 C.ar      1 <0>        -0.0399
     16 C13         0.0329   -7.0469    5.3879 C.3       1 <0>        -0.0129
     17 C14         1.3146   -7.1687    6.1759 C.2       1 <0>        -0.2089
     18 C15         2.1640   -6.1918    5.7497 C.2       1 <0>         0.0844
     19 N3          3.3191   -6.3146    6.4715 N.pl3     1 <0>        -0.4502
     20 H1          4.1067   -5.7546    6.3871 H         1 <0>         0.4437
     21 N4          3.1646   -7.3903    7.3542 N.2       1 <0>        -0.2439
     22 C16         1.9647   -7.9034    7.1795 C.2       1 <0>         0.1619
     23 C17         1.3971   -9.0606    7.9170 C.2       1 <0>        -0.0559
     24 C18         2.2074  -10.1142    8.3101 C.2       1 <0>        -0.1017
     25 C19         1.6420  -11.1603    8.9884 C.2       1 <0>        -0.0557
     26 S1         -0.0701  -10.6652    9.0834 S.3       1 <0>         0.1197
     27 C20         0.0647   -9.1051    8.2268 C.2       1 <0>        -0.1436
     28 C21         2.2645  -12.3476    9.4920 C.1       1 <0>        -0.0725
     29 C22         2.7749  -13.3209    9.9049 C.1       1 <0>        -0.1261
     30 C23         3.4147  -14.5413   10.4225 C.3       1 <0>         0.1771
     31 O2          2.4337  -15.3575   11.0654 O.3       1 <0>        -0.3104
     32 C24         2.8623  -16.5302   11.6020 C.ar      1 <0>         0.1264
     33 C25         4.2007  -16.8852   11.5168 C.ar      1 <0>        -0.2099
     34 C26         4.6340  -18.0776   12.0635 C.ar      1 <0>        -0.0791
     35 C27         3.7350  -18.9171   12.6949 C.ar      1 <0>        -0.1548
     36 C28         2.4005  -18.5658   12.7808 C.ar      1 <0>        -0.0791
     37 C29         1.9633  -17.3716   12.2411 C.ar      1 <0>        -0.1489
     38 H2         -0.1528   -3.9476   -4.2050 H         1 <0>         0.1265
     39 H3          1.4445   -4.5354   -3.6841 H         1 <0>         0.1262
     40 H4         -0.0183   -5.4729   -3.2976 H         1 <0>         0.1226
     41 H5          0.5378   -5.4047   -0.9190 H         1 <0>         0.1349
     42 H6          2.0279   -4.5604   -1.4044 H         1 <0>         0.1457
     43 H7          1.4017   -4.1617    1.0056 H         1 <0>         0.1398
     44 H8          1.4727   -2.6612    0.0440 H         1 <0>         0.1002
     45 H9         -2.3671   -2.7905   -0.2142 H         1 <0>         0.1377
     46 H10        -1.0252   -1.7525   -0.7644 H         1 <0>         0.0975
     47 H11        -1.7267   -3.1944   -2.6196 H         1 <0>         0.1461
     48 H12        -1.5585   -4.6421   -1.5975 H         1 <0>         0.1343
     49 H13         1.5525   -2.8661    2.4426 H         1 <0>         0.1351
     50 H14         2.9779   -3.9046    4.1299 H         1 <0>         0.1350
     51 H15        -1.5639   -5.6798    3.3293 H         1 <0>         0.1417
     52 H16        -0.8034   -6.8488    6.0582 H         1 <0>         0.1082
     53 H17        -0.1475   -7.9594    4.8197 H         1 <0>         0.1084
     54 H18         3.2637  -10.1101    8.0855 H         1 <0>         0.1448
     55 H19        -0.7072   -8.3822    8.0080 H         1 <0>         0.1957
     56 H20         3.8634  -15.0943    9.5973 H         1 <0>         0.0960
     57 H21         4.1883  -14.2693   11.1407 H         1 <0>         0.0950
     58 H22         4.9032  -16.2302   11.0231 H         1 <0>         0.1292
     59 H23         5.6759  -18.3544   11.9974 H         1 <0>         0.1272
     60 H24         4.0756  -19.8490   13.1213 H         1 <0>         0.1260
     61 H25         1.7001  -19.2234   13.2741 H         1 <0>         0.1314
     62 H26         0.9216  -17.0956   12.3123 H         1 <0>         0.1314
     63 H27         0.6255   -2.8010   -2.2670 H         1 <0>         0.4258
@<TRIPOS>BOND
     1    1    2 1
     2    1   38 1
     3    1   39 1
     4    1   40 1
     5    2    7 1
     6    2    3 1
     7    2   63 1
     8    3    4 1
     9    3   41 1
    10    3   42 1
    11    4    5 1
    12    4   43 1
    13    4   44 1
    14    5    6 1
    15    5    8 am
    16    6    7 1
    17    6   45 1
    18    6   46 1
    19    7   47 1
    20    7   48 1
    21    8    9 2
    22    8   10 1
    23   10   15 ar
    24   10   11 ar
    25   11   12 ar
    26   11   49 1
    27   12   13 ar
    28   12   50 1
    29   13   18 1
    30   13   14 ar
    31   14   15 ar
    32   14   16 1
    33   15   51 1
    34   16   17 1
    35   16   52 1
    36   16   53 1
    37   17   22 1
    38   17   18 2
    39   18   19 1
    40   19   20 1
    41   19   21 1
    42   21   22 2
    43   22   23 1
    44   23   27 2
    45   23   24 1
    46   24   25 2
    47   24   54 1
    48   25   26 1
    49   25   28 1
    50   26   27 1
    51   27   55 1
    52   28   29 3
    53   29   30 1
    54   30   31 1
    55   30   56 1
    56   30   57 1
    57   31   32 1
    58   32   37 ar
    59   32   33 ar
    60   33   34 ar
    61   33   58 1
    62   34   35 ar
    63   34   59 1
    64   35   36 ar
    65   35   60 1
    66   36   37 ar
    67   36   61 1
    68   37   62 1
@<TRIPOS>MOLECULE
CHEMBL390735__1
   63    68     0     0     0
SMALL
USER_CHARGES

@<TRIPOS>ATOM
      1 C1          0.3915   -4.4670   -3.4167 C.3       1 <0>        -0.0471
      2 N1          0.2511   -3.7290   -2.1543 N.4       1 <0>        -0.3861
      3 C2          0.9916   -4.4275   -1.0961 C.3       1 <0>        -0.0222
      4 C3          0.9415   -3.6000    0.1925 C.3       1 <0>         0.0723
      5 N2         -0.4672   -3.3262    0.5164 N.am      1 <0>        -0.6303
      6 C4         -1.3274   -2.7752   -0.5421 C.3       1 <0>         0.0887
      7 C5         -1.1702   -3.6416   -1.7960 C.3       1 <0>        -0.0201
      8 C6         -0.9558   -3.5737    1.7479 C.2       1 <0>         0.5770
      9 O1         -2.1036   -3.2768    2.0174 O.2       1 <0>        -0.4985
     10 C7         -0.0970   -4.2055    2.7699 C.ar      1 <0>        -0.1336
     11 C8          1.1883   -3.7115    3.0082 C.ar      1 <0>        -0.0999
     12 C9          1.9879   -4.3004    3.9596 C.ar      1 <0>        -0.0865
     13 C10         1.5186   -5.3953    4.6921 C.ar      1 <0>         0.0201
     14 C11         0.2360   -5.8855    4.4526 C.ar      1 <0>        -0.0703
     15 C12        -0.5691   -5.2955    3.5056 C.ar      1 <0>        -0.0454
     16 C13         0.0100   -7.0551    5.3797 C.3       1 <0>        -0.0019
     17 C14         1.2779   -7.2039    6.1832 C.2       1 <0>        -0.2310
     18 C15         2.1658   -6.2021    5.7563 C.2       1 <0>         0.0788
     19 N3          3.2809   -6.3224    6.4530 N.2       1 <0>        -0.2432
     20 H1          3.8043   -7.7091    7.9702 H         1 <0>         0.4490
     21 N4          3.1373   -7.3974    7.3386 N.pl3     1 <0>        -0.4536
     22 C16         1.8944   -7.9287    7.1572 C.2       1 <0>         0.1776
     23 C17         1.3202   -9.0819    7.8864 C.2       1 <0>        -0.0786
     24 C18         1.4460   -9.1823    9.2647 C.2       1 <0>        -0.1234
     25 C19         0.8991  -10.2654    9.8971 C.2       1 <0>        -0.0453
     26 S1          0.1865  -11.1761    8.5376 S.3       1 <0>         0.1378
     27 C20         0.6482  -10.0701    7.2151 C.2       1 <0>        -0.1402
     28 C21         0.8991  -10.5864   11.2927 C.1       1 <0>        -0.0813
     29 C22         0.8990  -10.8496   12.4368 C.1       1 <0>        -0.1149
     30 C23         0.8989  -11.1796   13.8713 C.3       1 <0>         0.1751
     31 O2          0.2071  -12.4131   14.0763 O.3       1 <0>        -0.3104
     32 C24         0.1156  -12.8640   15.3551 C.ar      1 <0>         0.1254
     33 C25         0.6751  -12.1314   16.3919 C.ar      1 <0>        -0.2096
     34 C26         0.5803  -12.5917   17.6909 C.ar      1 <0>        -0.0791
     35 C27        -0.0711  -13.7816   17.9582 C.ar      1 <0>        -0.1538
     36 C28        -0.6291  -14.5139   16.9266 C.ar      1 <0>        -0.0788
     37 C29        -0.5424  -14.0548   15.6265 C.ar      1 <0>        -0.1481
     38 H2         -0.1512   -3.9452   -4.2049 H         1 <0>         0.1261
     39 H3          1.4462   -4.5326   -3.6838 H         1 <0>         0.1261
     40 H4         -0.0164   -5.4709   -3.2980 H         1 <0>         0.1223
     41 H5          0.5392   -5.4033   -0.9193 H         1 <0>         0.1348
     42 H6          2.0290   -4.5582   -1.4040 H         1 <0>         0.1457
     43 H7          1.4021   -4.1606    1.0059 H         1 <0>         0.1410
     44 H8          1.4728   -2.6597    0.0449 H         1 <0>         0.1003
     45 H9         -2.3669   -2.7904   -0.2143 H         1 <0>         0.1373
     46 H10        -1.0253   -1.7516   -0.7638 H         1 <0>         0.0972
     47 H11        -1.7258   -3.1932   -2.6196 H         1 <0>         0.1456
     48 H12        -1.5572   -4.6411   -1.5980 H         1 <0>         0.1340
     49 H13         1.5543   -2.8663    2.4442 H         1 <0>         0.1355
     50 H14         2.9809   -3.9166    4.1413 H         1 <0>         0.1393
     51 H15        -1.5636   -5.6774    3.3280 H         1 <0>         0.1397
     52 H16        -0.8318   -6.8517    6.0416 H         1 <0>         0.1028
     53 H17        -0.1777   -7.9604    4.8024 H         1 <0>         0.0996
     54 H18         1.9656   -8.4207    9.8271 H         1 <0>         0.1410
     55 H19         0.4500  -10.1576    6.1570 H         1 <0>         0.1975
     56 H20         1.9264  -11.2767   14.2219 H         1 <0>         0.0964
     57 H21         0.3990  -10.3860   14.4267 H         1 <0>         0.0965
     58 H22         1.1846  -11.2022   16.1836 H         1 <0>         0.1289
     59 H23         1.0157  -12.0217   18.4984 H         1 <0>         0.1274
     60 H24        -0.1438  -14.1400   18.9744 H         1 <0>         0.1265
     61 H25        -1.1371  -15.4432   17.1378 H         1 <0>         0.1321
     62 H26        -0.9823  -14.6248   14.8216 H         1 <0>         0.1318
     63 H27         0.6262   -2.7990   -2.2663 H         1 <0>         0.4259
@<TRIPOS>BOND
     1    1    2 1
     2    1   38 1
     3    1   39 1
     4    1   40 1
     5    2    7 1
     6    2    3 1
     7    2   63 1
     8    3    4 1
     9    3   41 1
    10    3   42 1
    11    4    5 1
    12    4   43 1
    13    4   44 1
    14    5    6 1
    15    5    8 am
    16    6    7 1
    17    6   45 1
    18    6   46 1
    19    7   47 1
    20    7   48 1
    21    8    9 2
    22    8   10 1
    23   10   15 ar
    24   10   11 ar
    25   11   12 ar
    26   11   49 1
    27   12   13 ar
    28   12   50 1
    29   13   14 ar
    30   13   18 1
    31   14   15 ar
    32   14   16 1
    33   15   51 1
    34   16   52 1
    35   16   53 1
    36   16   17 1
    37   17   18 1
    38   17   22 2
    39   18   19 2
    40   19   21 1
    41   20   21 1
    42   21   22 1
    43   22   23 1
    44   23   27 2
    45   23   24 1
    46   24   25 2
    47   24   54 1
    48   25   26 1
    49   25   28 1
    50   26   27 1
    51   27   55 1
    52   28   29 3
    53   29   30 1
    54   30   31 1
    55   30   56 1
    56   30   57 1
    57   31   32 1
    58   32   37 ar
    59   32   33 ar
    60   33   34 ar
    61   33   58 1
    62   34   35 ar
    63   34   59 1
    64   35   36 ar
    65   35   60 1
    66   36   37 ar
    67   36   61 1
    68   37   62 1
@<TRIPOS>MOLECULE
CHEMBL390735__2
   62    67     0     0     0
SMALL
USER_CHARGES

@<TRIPOS>ATOM
      1 C1          0.6103   -4.3572   -3.6155 C.3       1 <0>         0.0243
      2 N1          0.3950   -3.7138   -2.3126 N.3       1 <0>        -0.5436
      3 C2          1.1337   -4.4121   -1.2521 C.3       1 <0>         0.0386
      4 C3          1.0311   -3.6108    0.0500 C.3       1 <0>         0.1003
      5 N2         -0.3905   -3.3682    0.3386 N.am      1 <0>        -0.6080
      6 C4         -1.2289   -2.7960   -0.7258 C.3       1 <0>         0.1163
      7 C5         -1.0373   -3.6294   -1.9974 C.3       1 <0>         0.0400
      8 C6         -0.9112   -3.6622    1.5465 C.2       1 <0>         0.5639
      9 O1         -2.0709   -3.3913    1.7908 O.2       1 <0>        -0.5290
     10 C7         -0.0728   -4.3133    2.5733 C.ar      1 <0>        -0.1130
     11 C8          1.1926   -3.8016    2.8729 C.ar      1 <0>        -0.0932
     12 C9          1.9732   -4.4085    3.8288 C.ar      1 <0>        -0.0866
     13 C10         1.5043   -5.5394    4.5046 C.ar      1 <0>         0.0021
     14 C11         0.2416   -6.0473    4.2041 C.ar      1 <0>        -0.0751
     15 C12        -0.5447   -5.4395    3.2524 C.ar      1 <0>        -0.0510
     16 C13         0.0111   -7.2550    5.0797 C.3       1 <0>         0.0009
     17 C14         1.2548   -7.4068    5.9198 C.2       1 <0>        -0.2284
     18 C15         2.1338   -6.3715    5.5600 C.2       1 <0>         0.0913
     19 N3          3.2276   -6.4941    6.2893 N.2       1 <0>        -0.2486
     20 H1          3.7312   -7.9249    7.7718 H         1 <0>         0.4461
     21 N4          3.0787   -7.6040    7.1297 N.pl3     1 <0>        -0.4591
     22 C16         1.8546   -8.1543    6.8871 C.2       1 <0>         0.1681
     23 C17         1.2825   -9.3456    7.5540 C.2       1 <0>        -0.0762
     24 C18         1.3647   -9.4944    8.9311 C.2       1 <0>        -0.1145
     25 C19         0.8215  -10.6116    9.5047 C.2       1 <0>        -0.0549
     26 S1          0.1747  -11.4859    8.0896 S.3       1 <0>         0.1282
     27 C20         0.6552  -10.3221    6.8246 C.2       1 <0>        -0.1336
     28 C21         0.7824  -10.9841   10.8869 C.1       1 <0>        -0.0719
     29 C22         0.7503  -11.2896   12.0200 C.1       1 <0>        -0.1269
     30 C23         0.7101  -11.6725   13.4407 C.3       1 <0>         0.1775
     31 O2          0.0395  -12.9270   13.5771 O.3       1 <0>        -0.3104
     32 C24        -0.0843  -13.4270   14.8347 C.ar      1 <0>         0.1273
     33 C25         0.4241  -12.7218   15.9159 C.ar      1 <0>        -0.2099
     34 C26         0.2967  -13.2319   17.1934 C.ar      1 <0>        -0.0792
     35 C27        -0.3365  -14.4445   17.3949 C.ar      1 <0>        -0.1556
     36 C28        -0.8437  -15.1494   16.3189 C.ar      1 <0>        -0.0793
     37 C29        -0.7242  -14.6406   15.0402 C.ar      1 <0>        -0.1489
     38 H2          0.1148   -3.7767   -4.3937 H         1 <0>         0.0717
     39 H3          1.6790   -4.4068   -3.8241 H         1 <0>         0.0712
     40 H4          0.1968   -5.3656   -3.5955 H         1 <0>         0.0267
     41 H5          0.7063   -5.4038   -1.1036 H         1 <0>         0.0404
     42 H6          2.1809   -4.5063   -1.5397 H         1 <0>         0.0902
     43 H7          1.4786   -4.1787    0.8657 H         1 <0>         0.1001
     44 H8          1.5492   -2.6586   -0.0643 H         1 <0>         0.0821
     45 H9         -2.2756   -2.8252   -0.4231 H         1 <0>         0.0983
     46 H10        -0.9281   -1.7655   -0.9147 H         1 <0>         0.0790
     47 H11        -1.5647   -3.1559   -2.8255 H         1 <0>         0.0905
     48 H12        -1.4345   -4.6320   -1.8385 H         1 <0>         0.0399
     49 H13         1.5582   -2.9285    2.3528 H         1 <0>         0.1376
     50 H14         2.9508   -4.0109    4.0579 H         1 <0>         0.1357
     51 H15        -1.5240   -5.8354    3.0274 H         1 <0>         0.1370
     52 H16        -0.8564   -7.0941    5.7197 H         1 <0>         0.0991
     53 H17        -0.1371   -8.1420    4.4638 H         1 <0>         0.0969
     54 H18         1.8483   -8.7435    9.5382 H         1 <0>         0.1409
     55 H19         0.4941  -10.3744    5.7580 H         1 <0>         0.1989
     56 H20         1.7273  -11.7610   13.8221 H         1 <0>         0.0954
     57 H21         0.1745  -10.9108   14.0073 H         1 <0>         0.0957
     58 H22         0.9195  -11.7750   15.7590 H         1 <0>         0.1294
     59 H23         0.6923  -12.6834   18.0354 H         1 <0>         0.1269
     60 H24        -0.4349  -14.8417   18.3943 H         1 <0>         0.1255
     61 H25        -1.3376  -16.0964   16.4789 H         1 <0>         0.1312
     62 H26        -1.1244  -15.1895   14.2005 H         1 <0>         0.1317
@<TRIPOS>BOND
     1    1    2 1
     2    1   38 1
     3    1   39 1
     4    1   40 1
     5    2    7 1
     6    2    3 1
     7    3    4 1
     8    3   41 1
     9    3   42 1
    10    4    5 1
    11    4   43 1
    12    4   44 1
    13    5    6 1
    14    5    8 am
    15    6    7 1
    16    6   45 1
    17    6   46 1
    18    7   47 1
    19    7   48 1
    20    8    9 2
    21    8   10 1
    22   10   15 ar
    23   10   11 ar
    24   11   12 ar
    25   11   49 1
    26   12   13 ar
    27   12   50 1
    28   13   14 ar
    29   13   18 1
    30   14   15 ar
    31   14   16 1
    32   15   51 1
    33   16   52 1
    34   16   53 1
    35   16   17 1
    36   17   18 1
    37   17   22 2
    38   18   19 2
    39   19   21 1
    40   20   21 1
    41   21   22 1
    42   22   23 1
    43   23   27 2
    44   23   24 1
    45   24   25 2
    46   24   54 1
    47   25   26 1
    48   25   28 1
    49   26   27 1
    50   27   55 1
    51   28   29 3
    52   29   30 1
    53   30   31 1
    54   30   56 1
    55   30   57 1
    56   31   32 1
    57   32   37 ar
    58   32   33 ar
    59   33   34 ar
    60   33   58 1
    61   34   35 ar
    62   34   59 1
    63   35   36 ar
    64   35   60 1
    65   36   37 ar
    66   36   61 1
    67   37   62 1
@<TRIPOS>MOLECULE
CHEMBL390735__3
   62    67     0     0     0
SMALL
USER_CHARGES

@<TRIPOS>ATOM
      1 C1          0.6089   -4.3593   -3.6157 C.3       1 <0>         0.0242
      2 N1          0.3941   -3.7154   -2.3129 N.3       1 <0>        -0.5435
      3 C2          1.1328   -4.4137   -1.2524 C.3       1 <0>         0.0384
      4 C3          1.0308   -3.6119    0.0495 C.3       1 <0>         0.1008
      5 N2         -0.3907   -3.3688    0.3384 N.am      1 <0>        -0.6077
      6 C4         -1.2291   -2.7965   -0.7260 C.3       1 <0>         0.1162
      7 C5         -1.0381   -3.6304   -1.9974 C.3       1 <0>         0.0397
      8 C6         -0.9112   -3.6622    1.5465 C.2       1 <0>         0.5631
      9 O1         -2.0708   -3.3908    1.7910 O.2       1 <0>        -0.5276
     10 C7         -0.0730   -4.3132    2.5731 C.ar      1 <0>        -0.1126
     11 C8          1.1926   -3.8012    2.8727 C.ar      1 <0>        -0.0907
     12 C9          1.9709   -4.3997    3.8210 C.ar      1 <0>        -0.0957
     13 C10         1.5075   -5.5316    4.5014 C.ar      1 <0>        -0.0169
     14 C11         0.2427   -6.0433    4.2027 C.ar      1 <0>        -0.0733
     15 C12        -0.5454   -5.4404    3.2528 C.ar      1 <0>        -0.0467
     16 C13         0.0336   -7.2467    5.0890 C.3       1 <0>        -0.0091
     17 C14         1.2909   -7.3707    5.9151 C.2       1 <0>        -0.2171
     18 C15         2.1320   -6.3609    5.5537 C.2       1 <0>         0.0987
     19 N3          3.2650   -6.4861    6.3093 N.pl3     1 <0>        -0.4527
     20 H1          4.0423   -5.9070    6.2721 H         1 <0>         0.4425
     21 N4          3.1054   -7.5969    7.1466 N.2       1 <0>        -0.2541
     22 C16         1.9236   -8.1283    6.9126 C.2       1 <0>         0.1594
     23 C17         1.3578   -9.3238    7.5878 C.2       1 <0>        -0.0526
     24 C18         2.1778  -10.3740    7.9696 C.2       1 <0>        -0.1007
     25 C19         1.6138  -11.4563    8.5897 C.2       1 <0>        -0.0633
     26 S1         -0.1112  -11.0011    8.6446 S.3       1 <0>         0.1189
     27 C20         0.0172   -9.4078    7.8505 C.2       1 <0>        -0.1418
     28 C21         2.2455  -12.6480    9.0706 C.1       1 <0>        -0.0634
     29 C22         2.7635  -13.6251    9.4648 C.1       1 <0>        -0.1358
     30 C23         3.4129  -14.8501    9.9591 C.3       1 <0>         0.1796
     31 O2          2.4295  -15.7102   10.5381 O.3       1 <0>        -0.3100
     32 C24         2.8661  -16.8927   11.0459 C.ar      1 <0>         0.1282
     33 C25         4.2142  -17.2161   10.9932 C.ar      1 <0>        -0.2101
     34 C26         4.6556  -18.4186   11.5105 C.ar      1 <0>        -0.0794
     35 C27         3.7550  -19.2997   12.0800 C.ar      1 <0>        -0.1564
     36 C28         2.4109  -18.9799   12.1334 C.ar      1 <0>        -0.0795
     37 C29         1.9653  -17.7760   11.6230 C.ar      1 <0>        -0.1491
     38 H2          0.1134   -3.7789   -4.3939 H         1 <0>         0.0721
     39 H3          1.6775   -4.4094   -3.8244 H         1 <0>         0.0712
     40 H4          0.1950   -5.3675   -3.5953 H         1 <0>         0.0270
     41 H5          0.7051   -5.4052   -1.1034 H         1 <0>         0.0405
     42 H6          2.1799   -4.5083   -1.5402 H         1 <0>         0.0901
     43 H7          1.4783   -4.1798    0.8653 H         1 <0>         0.0987
     44 H8          1.5492   -2.6600   -0.0651 H         1 <0>         0.0820
     45 H9         -2.2757   -2.8253   -0.4230 H         1 <0>         0.0987
     46 H10        -0.9279   -1.7662   -0.9153 H         1 <0>         0.0794
     47 H11        -1.5655   -3.1570   -2.8255 H         1 <0>         0.0911
     48 H12        -1.4356   -4.6328   -1.8381 H         1 <0>         0.0402
     49 H13         1.5565   -2.9283    2.3512 H         1 <0>         0.1373
     50 H14         2.9479   -3.9985    4.0468 H         1 <0>         0.1313
     51 H15        -1.5242   -5.8379    3.0287 H         1 <0>         0.1392
     52 H16        -0.8287   -7.0912    5.7374 H         1 <0>         0.1038
     53 H17        -0.1076   -8.1410    4.4821 H         1 <0>         0.1048
     54 H18         3.2407  -10.3393    7.7812 H         1 <0>         0.1439
     55 H19        -0.7630   -8.6937    7.6321 H         1 <0>         0.1967
     56 H20         3.9008  -15.3626    9.1299 H         1 <0>         0.0942
     57 H21         4.1560  -14.5888   10.7125 H         1 <0>         0.0943
     58 H22         4.9179  -16.5285   10.5478 H         1 <0>         0.1294
     59 H23         5.7049  -18.6708   11.4697 H         1 <0>         0.1265
     60 H24         4.1020  -20.2394   12.4836 H         1 <0>         0.1251
     61 H25         1.7094  -19.6700   12.5785 H         1 <0>         0.1309
     62 H26         0.9160  -17.5247   11.6689 H         1 <0>         0.1318
@<TRIPOS>BOND
     1    1    2 1
     2    1   38 1
     3    1   39 1
     4    1   40 1
     5    2    7 1
     6    2    3 1
     7    3    4 1
     8    3   41 1
     9    3   42 1
    10    4    5 1
    11    4   43 1
    12    4   44 1
    13    5    6 1
    14    5    8 am
    15    6    7 1
    16    6   45 1
    17    6   46 1
    18    7   47 1
    19    7   48 1
    20    8    9 2
    21    8   10 1
    22   10   15 ar
    23   10   11 ar
    24   11   12 ar
    25   11   49 1
    26   12   13 ar
    27   12   50 1
    28   13   18 1
    29   13   14 ar
    30   14   15 ar
    31   14   16 1
    32   15   51 1
    33   16   17 1
    34   16   52 1
    35   16   53 1
    36   17   22 1
    37   17   18 2
    38   18   19 1
    39   19   20 1
    40   19   21 1
    41   21   22 2
    42   22   23 1
    43   23   27 2
    44   23   24 1
    45   24   25 2
    46   24   54 1
    47   25   26 1
    48   25   28 1
    49   26   27 1
    50   27   55 1
    51   28   29 3
    52   29   30 1
    53   30   31 1
    54   30   56 1
    55   30   57 1
    56   31   32 1
    57   32   37 ar
    58   32   33 ar
    59   33   34 ar
    60   33   58 1
    61   34   35 ar
    62   34   59 1
    63   35   36 ar
    64   35   60 1
    65   36   37 ar
    66   36   61 1
    67   37   62 1
@<TRIPOS>MOLECULE
CHEMBL224027
   56    61     0     0     0
SMALL
USER_CHARGES

@<TRIPOS>ATOM
      1 C1         -0.0167    1.3784    0.0096 C.ar      1 <0>        -0.1565
      2 C2          1.1698    2.0883    0.0021 C.ar      1 <0>        -0.0796
      3 C3          2.3773    1.4175   -0.0134 C.ar      1 <0>        -0.1493
      4 C4          2.3989    0.0304   -0.0210 C.ar      1 <0>         0.1283
      5 C5          1.2070   -0.6796   -0.0130 C.ar      1 <0>        -0.2101
      6 C6          0.0021   -0.0041    0.0020 C.ar      1 <0>        -0.0794
      7 O1          3.5855   -0.6319   -0.0368 O.3       1 <0>        -0.3101
      8 C7          3.5315   -2.0598   -0.0438 C.3       1 <0>         0.1796
      9 C8          4.8997   -2.6026   -0.0608 C.1       1 <0>        -0.1369
     10 C9          5.9909   -3.0354   -0.0744 C.1       1 <0>        -0.0633
     11 C10         7.3219   -3.5634   -0.0909 C.2       1 <0>        -0.0640
     12 C11         8.5141   -2.8905   -0.0935 C.2       1 <0>        -0.0982
     13 C12         9.6910   -3.6224   -0.1101 C.2       1 <0>        -0.0516
     14 C13         9.6151   -4.9889   -0.1233 C.2       1 <0>        -0.1410
     15 S1          7.8522   -5.2675   -0.1054 S.3       1 <0>         0.1153
     16 C14        11.0085   -2.9373   -0.1141 C.2       1 <0>         0.1589
     17 C15        12.1752   -3.3933    0.5198 C.2       1 <0>        -0.2247
     18 C16        13.1658   -2.4888    0.2833 C.2       1 <0>         0.1053
     19 N1         12.6302   -1.4903   -0.4811 N.pl3     1 <0>        -0.4548
     20 H1         13.1002   -0.7066   -0.8063 H         1 <0>         0.4415
     21 N2         11.2855   -1.8004   -0.7174 N.2       1 <0>        -0.2587
     22 C17        14.4198   -2.9282    0.9342 C.ar      1 <0>        -0.0376
     23 C18        15.6906   -2.3489    0.9794 C.ar      1 <0>        -0.0914
     24 C19        16.7076   -2.9749    1.6690 C.ar      1 <0>        -0.0952
     25 C20        16.4763   -4.1753    2.3170 C.ar      1 <0>        -0.0652
     26 C21        15.2202   -4.7555    2.2770 C.ar      1 <0>        -0.0931
     27 C22        14.1980   -4.1377    1.5912 C.ar      1 <0>        -0.0683
     28 C23        12.7518   -4.5038    1.3641 C.3       1 <0>        -0.0082
     29 C24        17.5941   -4.8526    3.0674 C.3       1 <0>         0.1010
     30 N3         17.6033   -4.3844    4.4597 N.3       1 <0>        -0.5608
     31 C25        18.9065   -4.6208    5.0842 C.3       1 <0>         0.0552
     32 C26        18.7831   -4.6248    6.6363 C.3       1 <0>        -0.0570
     33 S2         17.1622   -5.5032    6.7785 S.3       1 <0>        -0.3250
     34 C27        16.4296   -4.8981    5.1995 C.3       1 <0>         0.1275
     35 H2         -0.9596    1.9047    0.0260 H         1 <0>         0.1250
     36 H3          1.1525    3.1682    0.0080 H         1 <0>         0.1308
     37 H4          3.3038    1.9724   -0.0200 H         1 <0>         0.1317
     38 H5          1.2211   -1.7595   -0.0193 H         1 <0>         0.1295
     39 H6         -0.9260   -0.5563    0.0082 H         1 <0>         0.1264
     40 H7          3.0134   -2.4083    0.8497 H         1 <0>         0.0943
     41 H8          2.9951   -2.3988   -0.9302 H         1 <0>         0.0944
     42 H9          8.5371   -1.8108   -0.0831 H         1 <0>         0.1441
     43 H10        10.4164   -5.7129   -0.1369 H         1 <0>         0.1962
     44 H11        15.8762   -1.4124    0.4745 H         1 <0>         0.1239
     45 H12        17.6893   -2.5262    1.7032 H         1 <0>         0.1299
     46 H13        15.0419   -5.6927    2.7832 H         1 <0>         0.1272
     47 H14        12.2251   -4.5647    2.3164 H         1 <0>         0.1010
     48 H15        12.6830   -5.4538    0.8340 H         1 <0>         0.0989
     49 H16        17.4430   -5.9319    3.0479 H         1 <0>         0.0558
     50 H17        18.5468   -4.6105    2.5964 H         1 <0>         0.0910
     51 H18        19.2939   -5.5841    4.7526 H         1 <0>         0.0560
     52 H19        19.5975   -3.8342    4.7812 H         1 <0>         0.0981
     53 H20        19.5891   -5.1926    7.1012 H         1 <0>         0.1182
     54 H21        18.7272   -3.6125    7.0368 H         1 <0>         0.1015
     55 H22        15.7136   -4.0983    5.3889 H         1 <0>         0.1044
     56 H23        15.9591   -5.7166    4.6548 H         1 <0>         0.0890
@<TRIPOS>BOND
     1    1    6 ar
     2    1    2 ar
     3    1   35 1
     4    2    3 ar
     5    2   36 1
     6    3    4 ar
     7    3   37 1
     8    4    5 ar
     9    4    7 1
    10    5    6 ar
    11    5   38 1
    12    6   39 1
    13    7    8 1
    14    8    9 1
    15    8   40 1
    16    8   41 1
    17    9   10 3
    18   10   11 1
    19   11   15 1
    20   11   12 2
    21   12   13 1
    22   12   42 1
    23   13   14 2
    24   13   16 1
    25   14   15 1
    26   14   43 1
    27   16   21 2
    28   16   17 1
    29   17   28 1
    30   17   18 2
    31   18   19 1
    32   18   22 1
    33   19   20 1
    34   19   21 1
    35   22   27 ar
    36   22   23 ar
    37   23   24 ar
    38   23   44 1
    39   24   25 ar
    40   24   45 1
    41   25   26 ar
    42   25   29 1
    43   26   27 ar
    44   26   46 1
    45   27   28 1
    46   28   47 1
    47   28   48 1
    48   29   30 1
    49   29   49 1
    50   29   50 1
    51   30   34 1
    52   30   31 1
    53   31   32 1
    54   31   51 1
    55   31   52 1
    56   32   33 1
    57   32   53 1
    58   32   54 1
    59   33   34 1
    60   34   55 1
    61   34   56 1
@<TRIPOS>MOLECULE
CHEMBL224027__1
   56    61     0     0     0
SMALL
USER_CHARGES

@<TRIPOS>ATOM
      1 C1         -0.0167    1.3784    0.0096 C.ar      1 <0>        -0.1557
      2 C2          1.1698    2.0883    0.0021 C.ar      1 <0>        -0.0793
      3 C3          2.3773    1.4175   -0.0134 C.ar      1 <0>        -0.1488
      4 C4          2.3989    0.0304   -0.0210 C.ar      1 <0>         0.1274
      5 C5          1.2070   -0.6796   -0.0130 C.ar      1 <0>        -0.2100
      6 C6          0.0021   -0.0041    0.0020 C.ar      1 <0>        -0.0793
      7 O1          3.5855   -0.6319   -0.0368 O.3       1 <0>        -0.3101
      8 C7          3.5315   -2.0598   -0.0438 C.3       1 <0>         0.1778
      9 C8          4.8997   -2.6026   -0.0608 C.1       1 <0>        -0.1277
     10 C9          5.9909   -3.0354   -0.0744 C.1       1 <0>        -0.0712
     11 C10         7.3219   -3.5634   -0.0909 C.2       1 <0>        -0.0554
     12 C11         8.5132   -2.8903   -0.0935 C.2       1 <0>        -0.1147
     13 C12         9.6919   -3.6223   -0.1101 C.2       1 <0>        -0.0749
     14 C13         9.6145   -4.9907   -0.1233 C.2       1 <0>        -0.1341
     15 S1          7.8514   -5.2677   -0.1054 S.3       1 <0>         0.1270
     16 C14        11.0054   -2.9396   -0.1141 C.2       1 <0>         0.1660
     17 C15        12.0846   -3.2645    0.6505 C.2       1 <0>        -0.2310
     18 C16        13.1235   -2.3713    0.3412 C.2       1 <0>         0.0970
     19 N1         12.6818   -1.5362   -0.5803 N.2       1 <0>        -0.2540
     20 H1         10.7916   -1.4270   -1.5362 H         1 <0>         0.4448
     21 N2         11.3583   -1.8739   -0.8882 N.pl3     1 <0>        -0.4619
     22 C17        14.3148   -2.7038    1.1632 C.ar      1 <0>        -0.0186
     23 C18        15.5808   -2.1186    1.2227 C.ar      1 <0>        -0.0825
     24 C19        16.5325   -2.6215    2.0852 C.ar      1 <0>        -0.0972
     25 C20        16.2374   -3.7052    2.8928 C.ar      1 <0>        -0.0666
     26 C21        14.9851   -4.2902    2.8386 C.ar      1 <0>        -0.0963
     27 C22        14.0269   -3.7935    1.9793 C.ar      1 <0>        -0.0708
     28 C23        12.6033   -4.2117    1.7037 C.3       1 <0>         0.0012
     29 C24        17.2820   -4.2495    3.8327 C.3       1 <0>         0.1019
     30 N3         17.1775   -3.5669    5.1293 N.3       1 <0>        -0.5607
     31 C25        18.4212   -3.6948    5.8915 C.3       1 <0>         0.0553
     32 C26        18.1672   -3.4538    7.4085 C.3       1 <0>        -0.0566
     33 S2         16.5327   -4.3068    7.5499 S.3       1 <0>        -0.3272
     34 C27        15.9413   -3.9629    5.8388 C.3       1 <0>         0.1285
     35 H2         -0.9596    1.9047    0.0260 H         1 <0>         0.1255
     36 H3          1.1525    3.1682    0.0080 H         1 <0>         0.1313
     37 H4          3.3038    1.9724   -0.0200 H         1 <0>         0.1319
     38 H5          1.2211   -1.7595   -0.0193 H         1 <0>         0.1292
     39 H6         -0.9260   -0.5563    0.0082 H         1 <0>         0.1267
     40 H7          3.0134   -2.4083    0.8497 H         1 <0>         0.0953
     41 H8          2.9951   -2.3988   -0.9302 H         1 <0>         0.0952
     42 H9          8.5356   -1.8106   -0.0831 H         1 <0>         0.1407
     43 H10        10.4151   -5.7155   -0.1369 H         1 <0>         0.1987
     44 H11        15.8151   -1.2726    0.5936 H         1 <0>         0.1276
     45 H12        17.5116   -2.1679    2.1298 H         1 <0>         0.1295
     46 H13        14.7572   -5.1366    3.4695 H         1 <0>         0.1253
     47 H14        12.0056   -4.1270    2.6113 H         1 <0>         0.0952
     48 H15        12.5783   -5.2360    1.3319 H         1 <0>         0.0937
     49 H16        17.1240   -5.3191    3.9715 H         1 <0>         0.0549
     50 H17        18.2731   -4.0803    3.4118 H         1 <0>         0.0907
     51 H18        18.8272   -4.6965    5.7503 H         1 <0>         0.0555
     52 H19        19.1421   -2.9627    5.5276 H         1 <0>         0.0981
     53 H20        18.9262   -3.9368    8.0240 H         1 <0>         0.1178
     54 H21        18.0862   -2.3912    7.6377 H         1 <0>         0.1014
     55 H22        15.2186   -3.1469    5.8380 H         1 <0>         0.1044
     56 H23        15.5116   -4.8597    5.3924 H         1 <0>         0.0888
@<TRIPOS>BOND
     1    1    6 ar
     2    1    2 ar
     3    1   35 1
     4    2    3 ar
     5    2   36 1
     6    3    4 ar
     7    3   37 1
     8    4    5 ar
     9    4    7 1
    10    5    6 ar
    11    5   38 1
    12    6   39 1
    13    7    8 1
    14    8    9 1
    15    8   40 1
    16    8   41 1
    17    9   10 3
    18   10   11 1
    19   11   15 1
    20   11   12 2
    21   12   13 1
    22   12   42 1
    23   13   14 2
    24   13   16 1
    25   14   15 1
    26   14   43 1
    27   16   17 2
    28   16   21 1
    29   17   18 1
    30   17   28 1
    31   18   19 2
    32   18   22 1
    33   19   21 1
    34   20   21 1
    35   22   27 ar
    36   22   23 ar
    37   23   24 ar
    38   23   44 1
    39   24   25 ar
    40   24   45 1
    41   25   26 ar
    42   25   29 1
    43   26   27 ar
    44   26   46 1
    45   27   28 1
    46   28   47 1
    47   28   48 1
    48   29   30 1
    49   29   49 1
    50   29   50 1
    51   30   34 1
    52   30   31 1
    53   31   32 1
    54   31   51 1
    55   31   52 1
    56   32   33 1
    57   32   53 1
    58   32   54 1
    59   33   34 1
    60   34   55 1
    61   34   56 1
@<TRIPOS>MOLECULE
CHEMBL477563
   53    56     0     0     0
SMALL
USER_CHARGES

@<TRIPOS>ATOM
      1 C1          3.3937   -0.0677   -4.0357 C.3       1 <0>        -0.1274
      2 C2          2.8481   -1.3354   -3.4305 C.cat     1 <0>         0.4055
      3 N1          1.6022   -1.7076   -3.4776 N.pl3     1 <0>        -0.4993
      4 C3          1.4555   -2.8954   -2.8360 C.ar      1 <0>         0.1028
      5 C4          0.3599   -3.7277   -2.5917 C.ar      1 <0>        -0.1413
      6 C5          0.5371   -4.9046   -1.8892 C.ar      1 <0>         0.2379
      7 C6          1.8009   -5.2644   -1.4243 C.ar      1 <0>        -0.1348
      8 C7          2.8874   -4.4509   -1.6592 C.ar      1 <0>        -0.0302
      9 C8          2.7257   -3.2656   -2.3638 C.ar      1 <0>         0.0404
     10 N2          3.5872   -2.2597   -2.7606 N.pl3     1 <0>        -0.4261
     11 C9          5.0284   -2.1992   -2.5041 C.3       1 <0>         0.0555
     12 N3         -0.5591   -5.7400   -1.6428 N.pl3     1 <0>        -0.5821
     13 C10        -1.9074   -5.3104   -2.0220 C.3       1 <0>         0.0823
     14 C11        -0.3687   -6.9736   -1.0400 C.ar      1 <0>         0.5246
     15 C12        -0.5157   -7.1175    0.3417 C.ar      1 <0>        -0.2262
     16 C13        -0.3163   -8.3653    0.8989 C.ar      1 <0>         0.2309
     17 N4          0.0063   -9.3822    0.1130 N.ar      1 <0>        -0.5382
     18 C14         0.1395   -9.2169   -1.1946 C.ar      1 <0>         0.6279
     19 N5         -0.0489   -8.0381   -1.7688 N.ar      1 <0>        -0.5143
     20 N6          0.4786  -10.3050   -1.9818 N.pl3     1 <0>        -0.5992
     21 C15         0.7325  -10.1293   -3.3454 C.ar      1 <0>         0.0911
     22 C16         1.3144   -8.9523   -3.7992 C.ar      1 <0>        -0.0457
     23 C17         1.5637   -8.7820   -5.1466 C.ar      1 <0>        -0.1177
     24 C18         1.2343   -9.7814   -6.0442 C.ar      1 <0>        -0.0041
     25 C19         0.6546  -10.9539   -5.5959 C.ar      1 <0>        -0.6541
     26 C20         0.4086  -11.1334   -4.2486 C.ar      1 <0>        -0.0139
     27 S1          0.2365  -12.2237   -6.7437 S.o2      1 <0>         2.6992
     28 O1         -0.7920  -12.9954   -6.1387 O.2       1 <0>        -0.9523
     29 O2          0.0726  -11.5922   -8.0061 O.2       1 <0>        -0.9438
     30 N7          1.5556  -13.2158   -6.8784 N.pl3     1 <0>        -1.2440
     31 H1          3.7025   -0.2593   -5.0634 H         1 <0>         0.1337
     32 H2          2.6214    0.7014   -4.0258 H         1 <0>         0.1266
     33 H3          4.2519    0.2717   -3.4558 H         1 <0>         0.1248
     34 H4         -0.6210   -3.4524   -2.9500 H         1 <0>         0.1610
     35 H5          1.9290   -6.1862   -0.8763 H         1 <0>         0.1372
     36 H6          3.8639   -4.7348   -1.2957 H         1 <0>         0.1578
     37 H7          5.2079   -1.6877   -1.5585 H         1 <0>         0.1115
     38 H8          5.4310   -3.2108   -2.4522 H         1 <0>         0.1149
     39 H9          5.5184   -1.6540   -3.3109 H         1 <0>         0.1182
     40 H10        -2.1197   -5.6365   -3.0402 H         1 <0>         0.0790
     41 H11        -2.6345   -5.7513   -1.3401 H         1 <0>         0.0899
     42 H12        -1.9710   -4.2236   -1.9679 H         1 <0>         0.0989
     43 H13        -0.7790   -6.2721    0.9601 H         1 <0>         0.2015
     44 H14        -0.4218   -8.5106    1.9639 H         1 <0>         0.2333
     45 H15         0.5400  -11.1889   -1.5870 H         1 <0>         0.4427
     46 H16         1.5712   -8.1712   -3.0989 H         1 <0>         0.1393
     47 H17         2.0161   -7.8672   -5.5000 H         1 <0>         0.1455
     48 H18         1.4301   -9.6455   -7.0976 H         1 <0>         0.1577
     49 H19        -0.0398  -12.0514   -3.8986 H         1 <0>         0.1563
     50 H20         1.4360  -14.1569   -7.0807 H         1 <0>         0.4287
     51 H21         2.4478  -12.8557   -6.7550 H         1 <0>         0.4182
     52 H22         0.1471  -10.2602    0.5007 H         1 <0>         0.4554
     53 H23         0.8867   -1.2117   -3.9056 H         1 <0>         0.4642
@<TRIPOS>BOND
     1    1    2 1
     2    1   31 1
     3    1   32 1
     4    1   33 1
     5    2   10 1
     6    2    3 2
     7    3    4 1
     8    3   53 1
     9    4    9 ar
    10    4    5 ar
    11    5    6 ar
    12    5   34 1
    13    6    7 ar
    14    6   12 1
    15    7    8 ar
    16    7   35 1
    17    8    9 ar
    18    8   36 1
    19    9   10 1
    20   10   11 1
    21   11   37 1
    22   11   38 1
    23   11   39 1
    24   12   13 1
    25   12   14 1
    26   13   40 1
    27   13   41 1
    28   13   42 1
    29   14   19 ar
    30   14   15 ar
    31   15   16 ar
    32   15   43 1
    33   16   17 ar
    34   16   44 1
    35   17   18 ar
    36   17   52 1
    37   18   19 ar
    38   18   20 1
    39   20   21 1
    40   20   45 1
    41   21   26 ar
    42   21   22 ar
    43   22   23 ar
    44   22   46 1
    45   23   24 ar
    46   23   47 1
    47   24   25 ar
    48   24   48 1
    49   25   26 ar
    50   25   27 1
    51   26   49 1
    52   27   28 2
    53   27   29 2
    54   27   30 1
    55   30   50 1
    56   30   51 1
@<TRIPOS>MOLECULE
CHEMBL477563__1
   52    55     0     0     0
SMALL
USER_CHARGES

@<TRIPOS>ATOM
      1 C1          3.3937   -0.0677   -4.0357 C.3       1 <0>        -0.0856
      2 C2          2.8481   -1.3354   -3.4305 C.2       1 <0>         0.3054
      3 N1          1.6022   -1.7076   -3.4776 N.2       1 <0>        -0.4984
      4 C3          1.4555   -2.8954   -2.8360 C.ar      1 <0>         0.0966
      5 C4          0.3599   -3.7277   -2.5917 C.ar      1 <0>        -0.1120
      6 C5          0.5371   -4.9046   -1.8892 C.ar      1 <0>         0.1792
      7 C6          1.8009   -5.2644   -1.4243 C.ar      1 <0>        -0.1610
      8 C7          2.8874   -4.4509   -1.6592 C.ar      1 <0>        -0.0572
      9 C8          2.7257   -3.2656   -2.3638 C.ar      1 <0>         0.0179
     10 N2          3.5872   -2.2597   -2.7606 N.pl3     1 <0>        -0.4910
     11 C9          5.0284   -2.1992   -2.5041 C.3       1 <0>         0.0738
     12 N3         -0.5591   -5.7400   -1.6428 N.pl3     1 <0>        -0.5928
     13 C10        -1.9074   -5.3104   -2.0220 C.3       1 <0>         0.0921
     14 C11        -0.3687   -6.9736   -1.0400 C.ar      1 <0>         0.5464
     15 C12        -0.5157   -7.1175    0.3417 C.ar      1 <0>        -0.2211
     16 C13        -0.3163   -8.3653    0.8989 C.ar      1 <0>         0.2149
     17 N4          0.0063   -9.3822    0.1130 N.ar      1 <0>        -0.5414
     18 C14         0.1395   -9.2169   -1.1946 C.ar      1 <0>         0.6254
     19 N5         -0.0489   -8.0381   -1.7688 N.ar      1 <0>        -0.5164
     20 N6          0.4786  -10.3050   -1.9818 N.pl3     1 <0>        -0.6080
     21 C15         0.7325  -10.1293   -3.3454 C.ar      1 <0>         0.0964
     22 C16         1.3144   -8.9523   -3.7992 C.ar      1 <0>        -0.0410
     23 C17         1.5637   -8.7820   -5.1466 C.ar      1 <0>        -0.1141
     24 C18         1.2343   -9.7814   -6.0442 C.ar      1 <0>        -0.0043
     25 C19         0.6546  -10.9539   -5.5959 C.ar      1 <0>        -0.6558
     26 C20         0.4086  -11.1334   -4.2486 C.ar      1 <0>        -0.0218
     27 S1          0.2365  -12.2237   -6.7437 S.o2      1 <0>         2.7012
     28 O1         -0.7920  -12.9954   -6.1387 O.2       1 <0>        -0.9563
     29 O2          0.0726  -11.5922   -8.0061 O.2       1 <0>        -0.9492
     30 N7          1.5556  -13.2158   -6.8784 N.pl3     1 <0>        -1.2475
     31 H1          3.7025   -0.2593   -5.0634 H         1 <0>         0.0943
     32 H2          2.6214    0.7014   -4.0258 H         1 <0>         0.1022
     33 H3          4.2519    0.2717   -3.4558 H         1 <0>         0.0839
     34 H4         -0.6210   -3.4524   -2.9500 H         1 <0>         0.1399
     35 H5          1.9290   -6.1862   -0.8763 H         1 <0>         0.1122
     36 H6          3.8639   -4.7348   -1.2957 H         1 <0>         0.1283
     37 H7          5.2079   -1.6877   -1.5585 H         1 <0>         0.0797
     38 H8          5.4310   -3.2108   -2.4522 H         1 <0>         0.0853
     39 H9          5.5184   -1.6540   -3.3109 H         1 <0>         0.0938
     40 H10        -2.1197   -5.6365   -3.0402 H         1 <0>         0.0692
     41 H11        -2.6345   -5.7513   -1.3401 H         1 <0>         0.0769
     42 H12        -1.9710   -4.2236   -1.9679 H         1 <0>         0.0980
     43 H13        -0.7790   -6.2721    0.9601 H         1 <0>         0.1994
     44 H14        -0.4218   -8.5106    1.9639 H         1 <0>         0.2280
     45 H15         0.5400  -11.1889   -1.5870 H         1 <0>         0.4386
     46 H16         1.5712   -8.1712   -3.0989 H         1 <0>         0.1442
     47 H17         2.0161   -7.8672   -5.5000 H         1 <0>         0.1483
     48 H18         1.4301   -9.6455   -7.0976 H         1 <0>         0.1564
     49 H19        -0.0398  -12.0514   -3.8986 H         1 <0>         0.1538
     50 H20         2.3577  -13.0283   -6.3662 H         1 <0>         0.4168
     51 H21         1.5261  -13.9843   -7.4695 H         1 <0>         0.4265
     52 H22         0.1471  -10.2602    0.5007 H         1 <0>         0.4501
@<TRIPOS>BOND
     1    1    2 1
     2    1   31 1
     3    1   32 1
     4    1   33 1
     5    2   10 1
     6    2    3 2
     7    3    4 1
     8    4    9 ar
     9    4    5 ar
    10    5    6 ar
    11    5   34 1
    12    6    7 ar
    13    6   12 1
    14    7    8 ar
    15    7   35 1
    16    8    9 ar
    17    8   36 1
    18    9   10 1
    19   10   11 1
    20   11   37 1
    21   11   38 1
    22   11   39 1
    23   12   13 1
    24   12   14 1
    25   13   40 1
    26   13   41 1
    27   13   42 1
    28   14   19 ar
    29   14   15 ar
    30   15   16 ar
    31   15   43 1
    32   16   17 ar
    33   16   44 1
    34   17   18 ar
    35   17   52 1
    36   18   19 ar
    37   18   20 1
    38   20   21 1
    39   20   45 1
    40   21   26 ar
    41   21   22 ar
    42   22   23 ar
    43   22   46 1
    44   23   24 ar
    45   23   47 1
    46   24   25 ar
    47   24   48 1
    48   25   26 ar
    49   25   27 1
    50   26   49 1
    51   27   28 2
    52   27   29 2
    53   27   30 1
    54   30   50 1
    55   30   51 1
@<TRIPOS>MOLECULE
CHEMBL510788
   45    48     0     0     0
SMALL
USER_CHARGES

@<TRIPOS>ATOM
      1 C1          2.2988    1.1374    1.7058 C.ar      1 <0>        -0.0972
      2 C2          1.7135    1.2150    2.9565 C.ar      1 <0>        -0.0879
      3 C3          1.0106    0.1371    3.4621 C.ar      1 <0>        -0.1611
      4 C4          0.8908   -1.0211    2.7190 C.ar      1 <0>        -0.0719
      5 C5          1.4772   -1.1022    1.4630 C.ar      1 <0>         0.1625
      6 C6          2.1827   -0.0176    0.9579 C.ar      1 <0>        -0.1136
      7 N1          1.3581   -2.2743    0.7079 N.am      1 <0>        -0.6803
      8 C7          0.2410   -3.0229    0.7973 C.2       1 <0>         0.7032
      9 O1         -0.7007   -2.6330    1.4604 O.2       1 <0>        -0.5471
     10 N2          0.1676   -4.2037    0.1518 N.am      1 <0>        -0.6801
     11 C8         -1.0291   -4.9299    0.1549 C.ar      1 <0>         0.1662
     12 C9         -2.2465   -4.2603    0.1629 C.ar      1 <0>        -0.1140
     13 C10        -3.4268   -4.9733    0.1660 C.ar      1 <0>        -0.0782
     14 C11        -3.3979   -6.3673    0.1610 C.ar      1 <0>        -0.0371
     15 C12        -2.1748   -7.0367    0.1529 C.ar      1 <0>        -0.0929
     16 C13        -0.9974   -6.3189    0.1441 C.ar      1 <0>        -0.1398
     17 C14        -4.6656   -7.1365    0.1647 C.2       1 <0>        -0.2604
     18 C15        -5.5387   -7.0687    1.2645 C.2       1 <0>         0.2353
     19 N3         -6.6594   -7.7526    1.2619 N.2       1 <0>        -0.5087
     20 C16        -7.0017   -8.5273    0.2220 C.2       1 <0>         0.2968
     21 C17        -8.1077   -9.3313   -0.0193 C.2       1 <0>        -0.2792
     22 C18        -7.9421   -9.9108   -1.2698 C.2       1 <0>         0.1029
     23 N4         -6.8060   -9.4994   -1.7835 N.2       1 <0>        -0.3311
     24 N5         -6.1886   -8.6305   -0.8767 N.pl3     1 <0>        -0.3458
     25 C19        -5.0123   -7.9319   -0.9219 C.2       1 <0>         0.5007
     26 N6         -4.1863   -8.0194   -2.0190 N.pl3     1 <0>        -0.8262
     27 C20         0.3749    0.2258    4.8255 C.3       1 <0>         0.5090
     28 F1          0.6314    1.4849    5.3787 F         1 <0>        -0.1760
     29 F2         -1.0069    0.0405    4.7087 F         1 <0>        -0.1719
     30 F3          0.9099   -0.7657    5.6549 F         1 <0>        -0.1758
     31 H1          2.8435    1.9827    1.3117 H         1 <0>         0.1419
     32 H2          1.8061    2.1193    3.5396 H         1 <0>         0.1417
     33 H3          0.3419   -1.8629    3.1146 H         1 <0>         0.1481
     34 H4          2.6397   -0.0775   -0.0188 H         1 <0>         0.1369
     35 H5          2.0796   -2.5480    0.1201 H         1 <0>         0.4127
     36 H6          0.9440   -4.5504   -0.3150 H         1 <0>         0.4104
     37 H7         -2.2684   -3.1805    0.1672 H         1 <0>         0.1400
     38 H8         -4.3729   -4.4524    0.1726 H         1 <0>         0.1308
     39 H9         -2.1496   -8.1164    0.1494 H         1 <0>         0.1277
     40 H10        -0.0498   -6.8369    0.1331 H         1 <0>         0.1296
     41 H11        -5.2866   -6.4522    2.1147 H         1 <0>         0.1777
     42 H12        -8.9456   -9.4793    0.6459 H         1 <0>         0.1637
     43 H13        -8.6354  -10.5901   -1.7434 H         1 <0>         0.1985
     44 H14        -3.3530   -7.5234   -2.0394 H         1 <0>         0.4235
     45 H15        -4.4374   -8.5771   -2.7719 H         1 <0>         0.4165
@<TRIPOS>BOND
     1    1    6 ar
     2    1    2 ar
     3    1   31 1
     4    2    3 ar
     5    2   32 1
     6    3    4 ar
     7    3   27 1
     8    4    5 ar
     9    4   33 1
    10    5    6 ar
    11    5    7 1
    12    6   34 1
    13    7    8 am
    14    7   35 1
    15    8    9 2
    16    8   10 am
    17   10   11 1
    18   10   36 1
    19   11   16 ar
    20   11   12 ar
    21   12   13 ar
    22   12   37 1
    23   13   14 ar
    24   13   38 1
    25   14   15 ar
    26   14   17 1
    27   15   16 ar
    28   15   39 1
    29   16   40 1
    30   17   25 2
    31   17   18 1
    32   18   19 2
    33   18   41 1
    34   19   20 1
    35   20   24 1
    36   20   21 2
    37   21   22 1
    38   21   42 1
    39   22   23 2
    40   22   43 1
    41   23   24 1
    42   24   25 1
    43   25   26 1
    44   26   44 1
    45   26   45 1
    46   27   28 1
    47   27   29 1
    48   27   30 1
@<TRIPOS>MOLECULE
CHEMBL184274
   59    63     0     0     0
SMALL
USER_CHARGES

@<TRIPOS>ATOM
      1 C1         -0.6036    0.9966   -0.5765 C.3       1 <0>        -0.1155
      2 C2         -1.2170   -0.2589   -0.0122 C.ar      1 <0>        -0.0664
      3 C3         -2.4243   -0.7198   -0.5050 C.ar      1 <0>        -0.1344
      4 C4         -2.9903   -1.8712    0.0100 C.ar      1 <0>        -0.0953
      5 C5         -2.3510   -2.5654    1.0188 C.ar      1 <0>        -0.1241
      6 C6         -1.1386   -2.1056    1.5154 C.ar      1 <0>         0.1640
      7 C7         -0.5703   -0.9512    0.9925 C.ar      1 <0>        -0.1465
      8 N1         -0.4884   -2.8065    2.5373 N.am      1 <0>        -0.6818
      9 C8         -0.5694   -4.1508    2.5895 C.2       1 <0>         0.7038
     10 O1         -1.1259   -4.7615    1.6975 O.2       1 <0>        -0.5502
     11 N2         -0.0333   -4.8182    3.6305 N.am      1 <0>        -0.6830
     12 C9         -0.0181   -6.2168    3.6314 C.ar      1 <0>         0.1678
     13 C10         0.1505   -6.9095    2.4386 C.ar      1 <0>        -0.1147
     14 C11         0.1658   -8.2882    2.4370 C.ar      1 <0>        -0.0812
     15 C12         0.0121   -8.9872    3.6332 C.ar      1 <0>        -0.0628
     16 C13        -0.1568   -8.2902    4.8285 C.ar      1 <0>        -0.0859
     17 C14        -0.1658   -6.9114    4.8259 C.ar      1 <0>        -0.1417
     18 C15         0.0278  -10.4706    3.6341 C.ar      1 <0>        -0.0444
     19 C16        -0.7752  -11.1798    2.7360 C.ar      1 <0>        -0.0476
     20 C17        -0.7629  -12.5575    2.7351 C.ar      1 <0>        -0.1354
     21 C18         0.0465  -13.2538    3.6246 C.ar      1 <0>         0.2302
     22 C19         0.8571  -12.5511    4.5302 C.ar      1 <0>        -0.1987
     23 C20         0.8426  -11.1554    4.5210 C.ar      1 <0>        -0.0471
     24 C21         1.8109  -10.7115    5.5888 C.3       1 <0>         0.1407
     25 N3          2.3601  -11.9381    6.1783 N.am      1 <0>        -0.7212
     26 C22         1.7991  -12.9975    5.5699 C.2       1 <0>         0.5681
     27 O2          2.0454  -14.1591    5.8313 O.2       1 <0>        -0.5317
     28 N4          0.0531  -14.6452    3.6179 N.am      1 <0>        -0.6604
     29 C23        -0.2381  -15.3151    2.4853 C.2       1 <0>         0.5690
     30 O3         -0.4237  -14.7063    1.4497 O.2       1 <0>        -0.5074
     31 C24        -0.3319  -16.7900    2.5024 C.ar      1 <0>        -0.1957
     32 C25        -0.6282  -17.4983    1.3311 C.ar      1 <0>        -0.0105
     33 C26        -0.7045  -18.8779    1.4008 C.ar      1 <0>        -0.1787
     34 C27        -0.4878  -19.5078    2.6135 C.ar      1 <0>         0.1291
     35 N5         -0.2103  -18.8145    3.7011 N.ar      1 <0>        -0.4846
     36 C28        -0.1211  -17.5007    3.6846 C.ar      1 <0>         0.1418
     37 H1          0.0407    0.7400   -1.4174 H         1 <0>         0.0723
     38 H2         -1.3939    1.6665   -0.9154 H         1 <0>         0.0689
     39 H3         -0.0139    1.4915    0.1952 H         1 <0>         0.0665
     40 H4         -2.9261   -0.1788   -1.2937 H         1 <0>         0.1238
     41 H5         -3.9335   -2.2281   -0.3765 H         1 <0>         0.1267
     42 H6         -2.7938   -3.4646    1.4209 H         1 <0>         0.1341
     43 H7          0.3744   -0.5930    1.3742 H         1 <0>         0.1247
     44 H8          0.0205   -2.3248    3.2080 H         1 <0>         0.4086
     45 H9          0.3419   -4.3286    4.3791 H         1 <0>         0.4092
     46 H10         0.2691   -6.3675    1.5120 H         1 <0>         0.1374
     47 H11         0.2965   -8.8261    1.5096 H         1 <0>         0.1300
     48 H12        -0.2764   -8.8296    5.7565 H         1 <0>         0.1284
     49 H13        -0.2918   -6.3709    5.7524 H         1 <0>         0.1288
     50 H14        -1.4072  -10.6464    2.0415 H         1 <0>         0.1419
     51 H15        -1.3862  -13.0994    2.0393 H         1 <0>         0.1564
     52 H16         2.6106  -10.1177    5.1462 H         1 <0>         0.1015
     53 H17         1.2894  -10.1309    6.3498 H         1 <0>         0.1000
     54 H18         3.0133  -11.9778    6.8942 H         1 <0>         0.4277
     55 H19         0.2674  -15.1331    4.4285 H         1 <0>         0.4217
     56 H20        -0.7932  -16.9808    0.3976 H         1 <0>         0.1507
     57 H21        -0.9312  -19.4571    0.5179 H         1 <0>         0.1474
     58 H22        -0.5471  -20.5846    2.6707 H         1 <0>         0.1655
     59 H23         0.1126  -16.9685    4.5948 H         1 <0>         0.1599
@<TRIPOS>BOND
     1    1    2 1
     2    1   37 1
     3    1   38 1
     4    1   39 1
     5    2    7 ar
     6    2    3 ar
     7    3    4 ar
     8    3   40 1
     9    4    5 ar
    10    4   41 1
    11    5    6 ar
    12    5   42 1
    13    6    7 ar
    14    6    8 1
    15    7   43 1
    16    8    9 am
    17    8   44 1
    18    9   10 2
    19    9   11 am
    20   11   12 1
    21   11   45 1
    22   12   17 ar
    23   12   13 ar
    24   13   14 ar
    25   13   46 1
    26   14   15 ar
    27   14   47 1
    28   15   16 ar
    29   15   18 1
    30   16   17 ar
    31   16   48 1
    32   17   49 1
    33   18   23 ar
    34   18   19 ar
    35   19   20 ar
    36   19   50 1
    37   20   21 ar
    38   20   51 1
    39   21   22 ar
    40   21   28 1
    41   22   26 1
    42   22   23 ar
    43   23   24 1
    44   24   25 1
    45   24   52 1
    46   24   53 1
    47   25   26 am
    48   25   54 1
    49   26   27 2
    50   28   29 am
    51   28   55 1
    52   29   30 2
    53   29   31 1
    54   31   36 ar
    55   31   32 ar
    56   32   33 ar
    57   32   56 1
    58   33   34 ar
    59   33   57 1
    60   34   35 ar
    61   34   58 1
    62   35   36 ar
    63   36   59 1
@<TRIPOS>MOLECULE
CHEMBL508928
   55    59     0     0     0
SMALL
USER_CHARGES

@<TRIPOS>ATOM
      1 C1         -1.1854    1.0253   -0.4171 C.3       1 <0>        -0.1156
      2 C2         -1.7120   -0.2505    0.1878 C.ar      1 <0>        -0.0662
      3 C3         -2.9517   -0.7336   -0.1895 C.ar      1 <0>        -0.1348
      4 C4         -3.4382   -1.9040    0.3628 C.ar      1 <0>        -0.0949
      5 C5         -2.6868   -2.5947    1.2937 C.ar      1 <0>        -0.1251
      6 C6         -1.4418   -2.1123    1.6746 C.ar      1 <0>         0.1637
      7 C7         -0.9537   -0.9390    1.1140 C.ar      1 <0>        -0.1473
      8 N1         -0.6783   -2.8093    2.6178 N.am      1 <0>        -0.6811
      9 C8         -0.7426   -4.1543    2.6756 C.2       1 <0>         0.7037
     10 O1         -1.3898   -4.7681    1.8493 O.2       1 <0>        -0.5493
     11 N2         -0.0895   -4.8189    3.6494 N.am      1 <0>        -0.6829
     12 C9         -0.0661   -6.2184    3.6472 C.ar      1 <0>         0.1688
     13 C10        -0.0546   -6.9099    2.4421 C.ar      1 <0>        -0.1150
     14 C11        -0.0315   -8.2886    2.4371 C.ar      1 <0>        -0.0782
     15 C12        -0.0192   -8.9888    3.6428 C.ar      1 <0>        -0.0388
     16 C13        -0.0303   -8.2924    4.8507 C.ar      1 <0>        -0.0925
     17 C14        -0.0485   -6.9136    4.8501 C.ar      1 <0>        -0.1415
     18 C15         0.0051  -10.4714    3.6404 C.2       1 <0>        -0.2576
     19 C16        -1.0785  -11.2027    3.1229 C.2       1 <0>         0.2323
     20 N3         -1.0502  -12.5158    3.1240 N.2       1 <0>        -0.4990
     21 C17        -0.0016  -13.1900    3.6120 C.2       1 <0>         0.3070
     22 C18         0.2671  -14.5576    3.7259 C.2       1 <0>        -0.1652
     23 C19         1.5269  -14.6861    4.3185 C.2       1 <0>         0.1128
     24 N4          2.0077  -13.4895    4.5562 N.2       1 <0>        -0.3274
     25 N5          1.0832  -12.5300    4.1294 N.pl3     1 <0>        -0.3442
     26 C20         1.1025  -11.1606    4.1448 C.2       1 <0>         0.5009
     27 N6          2.1847  -10.4801    4.6542 N.pl3     1 <0>        -0.8266
     28 C21        -0.6215  -15.6678    3.2976 C.2       1 <0>        -0.1419
     29 C22        -1.9870  -15.8086    3.6113 C.2       1 <0>         0.0726
     30 N7         -2.4215  -16.9088    3.0549 N.2       1 <0>        -0.2993
     31 N8         -1.3591  -17.5099    2.3689 N.pl3     1 <0>        -0.3778
     32 C23        -0.2644  -16.7329    2.5241 C.2       1 <0>         0.0584
     33 C24        -1.4243  -18.7615    1.6103 C.3       1 <0>         0.1027
     34 H1         -0.6222    0.7935   -1.3211 H         1 <0>         0.0722
     35 H2         -2.0199    1.6805   -0.6669 H         1 <0>         0.0689
     36 H3         -0.5331    1.5249    0.2992 H         1 <0>         0.0664
     37 H4         -3.5413   -0.1953   -0.9168 H         1 <0>         0.1238
     38 H5         -4.4068   -2.2785    0.0664 H         1 <0>         0.1270
     39 H6         -3.0675   -3.5087    1.7251 H         1 <0>         0.1358
     40 H7          0.0162   -0.5635    1.4052 H         1 <0>         0.1245
     41 H8         -0.1029   -2.3245    3.2299 H         1 <0>         0.4086
     42 H9          0.3643   -4.3273    4.3518 H         1 <0>         0.4093
     43 H10        -0.0641   -6.3670    1.5085 H         1 <0>         0.1395
     44 H11        -0.0233   -8.8256    1.5001 H         1 <0>         0.1301
     45 H12        -0.0212   -8.8324    5.7860 H         1 <0>         0.1274
     46 H13        -0.0534   -6.3737    5.7854 H         1 <0>         0.1289
     47 H14        -1.9369  -10.6831    2.7235 H         1 <0>         0.1767
     48 H15         2.0229  -15.6186    4.5440 H         1 <0>         0.1969
     49 H16         2.1869   -9.5102    4.6638 H         1 <0>         0.4236
     50 H17         2.9452  -10.9704    5.0036 H         1 <0>         0.4163
     51 H18        -2.5736  -15.1261    4.2085 H         1 <0>         0.1805
     52 H19         0.7160  -16.9222    2.1125 H         1 <0>         0.1734
     53 H20        -1.6890  -18.5457    0.5753 H         1 <0>         0.0739
     54 H21        -0.4535  -19.2562    1.6415 H         1 <0>         0.0866
     55 H22        -2.1787  -19.4139    2.0499 H         1 <0>         0.0888
@<TRIPOS>BOND
     1    1    2 1
     2    1   34 1
     3    1   35 1
     4    1   36 1
     5    2    7 ar
     6    2    3 ar
     7    3    4 ar
     8    3   37 1
     9    4    5 ar
    10    4   38 1
    11    5    6 ar
    12    5   39 1
    13    6    7 ar
    14    6    8 1
    15    7   40 1
    16    8    9 am
    17    8   41 1
    18    9   10 2
    19    9   11 am
    20   11   12 1
    21   11   42 1
    22   12   17 ar
    23   12   13 ar
    24   13   14 ar
    25   13   43 1
    26   14   15 ar
    27   14   44 1
    28   15   16 ar
    29   15   18 1
    30   16   17 ar
    31   16   45 1
    32   17   46 1
    33   18   26 2
    34   18   19 1
    35   19   20 2
    36   19   47 1
    37   20   21 1
    38   21   25 1
    39   21   22 2
    40   22   23 1
    41   22   28 1
    42   23   24 2
    43   23   48 1
    44   24   25 1
    45   25   26 1
    46   26   27 1
    47   27   49 1
    48   27   50 1
    49   28   32 2
    50   28   29 1
    51   29   30 2
    52   29   51 1
    53   30   31 1
    54   31   32 1
    55   31   33 1
    56   32   52 1
    57   33   53 1
    58   33   54 1
    59   33   55 1
@<TRIPOS>MOLECULE
CHEMBL387971
   63    67     0     0     0
SMALL
USER_CHARGES

@<TRIPOS>ATOM
      1 C1         -0.0178    1.4648    0.0101 C.3       1 <0>        -0.0460
      2 N1          0.0021   -0.0041    0.0020 N.4       1 <0>        -0.3884
      3 C2         -1.3761   -0.5122    0.0107 C.3       1 <0>        -0.0028
      4 C3         -1.3560   -2.0421   -0.0167 C.3       1 <0>         0.0254
      5 N2         -0.6244   -2.5407    1.1564 N.3       1 <0>        -0.5358
      6 C4          0.7499   -2.0201    1.1745 C.3       1 <0>         0.0179
      7 C5          0.7125   -0.4904    1.1921 C.3       1 <0>        -0.0027
      8 C6         -0.6316   -4.0091    1.1963 C.3       1 <0>         0.0965
      9 C7         -0.0938   -4.4782    2.5236 C.ar      1 <0>        -0.0894
     10 C8          1.2596   -4.7046    2.6760 C.ar      1 <0>        -0.0870
     11 C9          1.7673   -5.1360    3.8924 C.ar      1 <0>        -0.0935
     12 C10         0.9125   -5.3428    4.9668 C.ar      1 <0>         0.0058
     13 C11        -0.4654   -5.1116    4.8093 C.ar      1 <0>        -0.1384
     14 C12        -0.9597   -4.6753    3.5892 C.ar      1 <0>        -0.0233
     15 C13        -1.1187   -5.4132    6.1081 C.2       1 <0>         0.4759
     16 O1         -2.3046   -5.3294    6.3574 O.2       1 <0>        -0.4156
     17 C14        -0.0533   -5.8343    7.0386 C.2       1 <0>        -0.3089
     18 C15         1.1578   -5.7924    6.3584 C.2       1 <0>         0.1432
     19 N3          2.1175   -6.1803    7.2243 N.pl3     1 <0>        -0.4201
     20 H1          3.0647   -6.2474    7.0262 H         1 <0>         0.4478
     21 N4          1.5188   -6.4693    8.4554 N.2       1 <0>        -0.2625
     22 C16         0.2210   -6.2662    8.3584 C.2       1 <0>         0.2171
     23 C17        -0.7751   -6.4562    9.4390 C.2       1 <0>        -0.0869
     24 C18        -0.6247   -7.4729   10.3753 C.2       1 <0>        -0.0926
     25 C19        -1.6018   -7.5588   11.3304 C.2       1 <0>        -0.0878
     26 S1         -2.6875   -6.2189   10.8820 S.3       1 <0>         0.2469
     27 C20        -1.8596   -5.6339    9.5429 C.2       1 <0>        -0.2012
     28 C21        -1.7212   -8.4886   12.4130 C.1       1 <0>        -0.0863
     29 C22        -1.8191   -9.2508   13.3005 C.1       1 <0>        -0.1209
     30 C23        -1.9418  -10.2066   14.4132 C.3       1 <0>         0.1756
     31 O2         -3.1261   -9.9192   15.1595 O.3       1 <0>        -0.3750
     32 C24        -3.3407  -10.7942   16.2688 C.3       1 <0>         0.0633
     33 C25        -4.6294  -10.3956   16.9908 C.3       1 <0>         0.0609
     34 O3         -5.7456  -10.6043   16.1232 O.3       1 <0>        -0.3853
     35 C26        -7.0053  -10.2611   16.7040 C.3       1 <0>         0.0304
     36 H2          1.0047    1.8421    0.0024 H         1 <0>         0.1242
     37 H3         -0.5450    1.8259   -0.8730 H         1 <0>         0.1248
     38 H4         -0.5280    1.8163    0.9069 H         1 <0>         0.1234
     39 H5         -1.8832   -0.1716    0.9134 H         1 <0>         0.1385
     40 H6         -1.9060   -0.1400   -0.8661 H         1 <0>         0.1371
     41 H7         -2.3783   -2.4196    0.0047 H         1 <0>         0.1263
     42 H8         -0.8610   -2.3831   -0.9260 H         1 <0>         0.0629
     43 H9          1.2641   -2.3816    2.0650 H         1 <0>         0.1253
     44 H10         1.2796   -2.3607    0.2848 H         1 <0>         0.0628
     45 H11         1.7310   -0.1020    1.1912 H         1 <0>         0.1359
     46 H12         0.1947   -0.1499    2.0888 H         1 <0>         0.1380
     47 H13        -1.6519   -4.3710    1.0694 H         1 <0>         0.1036
     48 H14        -0.0057   -4.3975    0.3929 H         1 <0>         0.0628
     49 H15         1.9274   -4.5451    1.8422 H         1 <0>         0.1342
     50 H16         2.8271   -5.3113    4.0037 H         1 <0>         0.1375
     51 H17        -2.0173   -4.4933    3.4678 H         1 <0>         0.1426
     52 H18         0.2127   -8.1544   10.3505 H         1 <0>         0.1494
     53 H19        -2.1247   -4.8004    8.9094 H         1 <0>         0.1930
     54 H20        -1.9992  -11.2203   14.0168 H         1 <0>         0.0826
     55 H21        -1.0720  -10.1198   15.0644 H         1 <0>         0.0821
     56 H22        -3.4271  -11.8201   15.9109 H         1 <0>         0.0639
     57 H23        -2.4999  -10.7195   16.9584 H         1 <0>         0.0709
     58 H24        -4.7470  -11.0047   17.8870 H         1 <0>         0.0684
     59 H25        -4.5786   -9.3434   17.2707 H         1 <0>         0.0596
     60 H26        -7.1722  -10.8674   17.5942 H         1 <0>         0.0419
     61 H27        -7.0037   -9.2061   16.9779 H         1 <0>         0.0424
     62 H28        -7.8009  -10.4480   15.9827 H         1 <0>         0.0870
     63 H29         0.4748   -0.3293   -0.8280 H         1 <0>         0.4224
@<TRIPOS>BOND
     1    1    2 1
     2    1   36 1
     3    1   37 1
     4    1   38 1
     5    2    7 1
     6    2    3 1
     7    2   63 1
     8    3    4 1
     9    3   39 1
    10    3   40 1
    11    4    5 1
    12    4   41 1
    13    4   42 1
    14    5    6 1
    15    5    8 1
    16    6    7 1
    17    6   43 1
    18    6   44 1
    19    7   45 1
    20    7   46 1
    21    8    9 1
    22    8   47 1
    23    8   48 1
    24    9   14 ar
    25    9   10 ar
    26   10   11 ar
    27   10   49 1
    28   11   12 ar
    29   11   50 1
    30   12   18 1
    31   12   13 ar
    32   13   14 ar
    33   13   15 1
    34   14   51 1
    35   15   16 2
    36   15   17 1
    37   17   22 1
    38   17   18 2
    39   18   19 1
    40   19   20 1
    41   19   21 1
    42   21   22 2
    43   22   23 1
    44   23   27 2
    45   23   24 1
    46   24   25 2
    47   24   52 1
    48   25   26 1
    49   25   28 1
    50   26   27 1
    51   27   53 1
    52   28   29 3
    53   29   30 1
    54   30   31 1
    55   30   54 1
    56   30   55 1
    57   31   32 1
    58   32   33 1
    59   32   56 1
    60   32   57 1
    61   33   34 1
    62   33   58 1
    63   33   59 1
    64   34   35 1
    65   35   60 1
    66   35   61 1
    67   35   62 1
@<TRIPOS>MOLECULE
CHEMBL387971__1
   63    67     0     0     0
SMALL
USER_CHARGES

@<TRIPOS>ATOM
      1 C1         -0.0178    1.4648    0.0101 C.3       1 <0>        -0.0459
      2 N1          0.0021   -0.0041    0.0020 N.4       1 <0>        -0.3883
      3 C2         -1.3761   -0.5122    0.0107 C.3       1 <0>        -0.0027
      4 C3         -1.3560   -2.0421   -0.0167 C.3       1 <0>         0.0254
      5 N2         -0.6244   -2.5407    1.1564 N.3       1 <0>        -0.5359
      6 C4          0.7499   -2.0201    1.1745 C.3       1 <0>         0.0180
      7 C5          0.7125   -0.4904    1.1921 C.3       1 <0>        -0.0028
      8 C6         -0.6316   -4.0091    1.1963 C.3       1 <0>         0.0980
      9 C7         -0.0938   -4.4782    2.5236 C.ar      1 <0>        -0.0949
     10 C8          1.2625   -4.7048    2.6753 C.ar      1 <0>        -0.0867
     11 C9          1.7683   -5.1354    3.8882 C.ar      1 <0>        -0.0899
     12 C10         0.9134   -5.3434    4.9650 C.ar      1 <0>         0.0360
     13 C11        -0.4639   -5.1131    4.8120 C.ar      1 <0>        -0.1407
     14 C12        -0.9570   -4.6742    3.5845 C.ar      1 <0>        -0.0254
     15 C13        -1.1421   -5.4065    6.0950 C.2       1 <0>         0.4834
     16 O1         -2.3352   -5.3126    6.3142 O.2       1 <0>        -0.4303
     17 C14        -0.1171   -5.8311    7.0539 C.2       1 <0>        -0.3359
     18 C15         1.1712   -5.7943    6.3549 C.2       1 <0>         0.1139
     19 N3          2.0892   -6.1733    7.2084 N.2       1 <0>        -0.2287
     20 H1          1.9631   -6.7631    9.2334 H         1 <0>         0.4515
     21 N4          1.4933   -6.4626    8.4397 N.pl3     1 <0>        -0.4611
     22 C16         0.1486   -6.2548    8.3510 C.2       1 <0>         0.2657
     23 C17        -0.8385   -6.4450    9.4282 C.2       1 <0>        -0.1197
     24 C18        -0.5974   -5.9703   10.7158 C.2       1 <0>        -0.1065
     25 C19        -1.5804   -6.2010   11.6368 C.2       1 <0>        -0.0816
     26 S1         -2.8078   -7.0704   10.6823 S.3       1 <0>         0.2691
     27 C20        -2.0332   -7.0936    9.1923 C.2       1 <0>        -0.1920
     28 C21        -1.6148   -5.8361   13.0211 C.1       1 <0>        -0.0937
     29 C22        -1.6431   -5.5369   14.1560 C.1       1 <0>        -0.1106
     30 C23        -1.6785   -5.1618   15.5789 C.3       1 <0>         0.1735
     31 O2         -2.9063   -5.6074   16.1586 O.3       1 <0>        -0.3755
     32 C24        -3.0424   -5.2918   17.5456 C.3       1 <0>         0.0633
     33 C25        -4.3865   -5.8134   18.0578 C.3       1 <0>         0.0609
     34 O3         -4.4000   -7.2408   17.9917 O.3       1 <0>        -0.3854
     35 C26        -5.6175   -7.8324   18.4497 C.3       1 <0>         0.0304
     36 H2          1.0047    1.8421    0.0024 H         1 <0>         0.1240
     37 H3         -0.5450    1.8259   -0.8730 H         1 <0>         0.1243
     38 H4         -0.5280    1.8163    0.9069 H         1 <0>         0.1232
     39 H5         -1.8832   -0.1716    0.9134 H         1 <0>         0.1382
     40 H6         -1.9060   -0.1400   -0.8661 H         1 <0>         0.1365
     41 H7         -2.3783   -2.4196    0.0047 H         1 <0>         0.1256
     42 H8         -0.8610   -2.3831   -0.9260 H         1 <0>         0.0624
     43 H9          1.2641   -2.3816    2.0650 H         1 <0>         0.1264
     44 H10         1.2796   -2.3607    0.2848 H         1 <0>         0.0627
     45 H11         1.7310   -0.1020    1.1912 H         1 <0>         0.1359
     46 H12         0.1947   -0.1499    2.0888 H         1 <0>         0.1379
     47 H13        -1.6519   -4.3710    1.0694 H         1 <0>         0.1022
     48 H14        -0.0057   -4.3975    0.3929 H         1 <0>         0.0620
     49 H15         1.9301   -4.5448    1.8416 H         1 <0>         0.1331
     50 H16         2.8282   -5.3105    3.9991 H         1 <0>         0.1401
     51 H17        -2.0143   -4.4918    3.4612 H         1 <0>         0.1401
     52 H18         0.3140   -5.4503   10.9714 H         1 <0>         0.1472
     53 H19        -2.3872   -7.5193    8.2650 H         1 <0>         0.1970
     54 H20        -0.8412   -5.6278   16.0985 H         1 <0>         0.0848
     55 H21        -1.6055   -4.0781   15.6709 H         1 <0>         0.0833
     56 H22        -2.2335   -5.7605   18.1060 H         1 <0>         0.0650
     57 H23        -2.9977   -4.2109   17.6784 H         1 <0>         0.0716
     58 H24        -4.5296   -5.4962   19.0907 H         1 <0>         0.0693
     59 H25        -5.1907   -5.4135   17.4401 H         1 <0>         0.0590
     60 H26        -5.7862   -7.5570   19.4907 H         1 <0>         0.0426
     61 H27        -6.4472   -7.4744   17.8401 H         1 <0>         0.0416
     62 H28        -5.5478   -8.9171   18.3675 H         1 <0>         0.0869
     63 H29         0.4748   -0.3293   -0.8280 H         1 <0>         0.4223
@<TRIPOS>BOND
     1    1    2 1
     2    1   36 1
     3    1   37 1
     4    1   38 1
     5    2    7 1
     6    2    3 1
     7    2   63 1
     8    3    4 1
     9    3   39 1
    10    3   40 1
    11    4    5 1
    12    4   41 1
    13    4   42 1
    14    5    6 1
    15    5    8 1
    16    6    7 1
    17    6   43 1
    18    6   44 1
    19    7   45 1
    20    7   46 1
    21    8    9 1
    22    8   47 1
    23    8   48 1
    24    9   14 ar
    25    9   10 ar
    26   10   11 ar
    27   10   49 1
    28   11   12 ar
    29   11   50 1
    30   12   18 1
    31   12   13 ar
    32   13   14 ar
    33   13   15 1
    34   14   51 1
    35   15   16 2
    36   15   17 1
    37   17   18 1
    38   17   22 2
    39   18   19 2
    40   19   21 1
    41   20   21 1
    42   21   22 1
    43   22   23 1
    44   23   27 2
    45   23   24 1
    46   24   25 2
    47   24   52 1
    48   25   26 1
    49   25   28 1
    50   26   27 1
    51   27   53 1
    52   28   29 3
    53   29   30 1
    54   30   31 1
    55   30   54 1
    56   30   55 1
    57   31   32 1
    58   32   33 1
    59   32   56 1
    60   32   57 1
    61   33   34 1
    62   33   58 1
    63   33   59 1
    64   34   35 1
    65   35   60 1
    66   35   61 1
    67   35   62 1
@<TRIPOS>MOLECULE
CHEMBL401040
   44    46     0     0     0
SMALL
USER_CHARGES

@<TRIPOS>ATOM
      1 C1          1.8202    1.5857   -0.1479 C.3       1 <0>         0.0916
      2 N1          1.0135    0.3784    0.0471 N.pl3     1 <0>        -0.2672
      3 C2          0.2152   -0.2022   -0.9078 C.2       1 <0>        -0.1301
      4 C3         -0.3609   -1.3153   -0.3013 C.2       1 <0>         0.1538
      5 C4          0.1462   -1.3234    1.0084 C.2       1 <0>        -0.0407
      6 N2          0.9499   -0.3007    1.1349 N.2       1 <0>        -0.2454
      7 N3         -1.2492   -2.2253   -0.8712 N.pl3     1 <0>        -0.7234
      8 C5         -1.7583   -3.3468   -0.0779 C.3       1 <0>         0.1739
      9 C6         -2.6937   -4.1747   -0.9210 C.ar      1 <0>        -0.0651
     10 C7         -4.0501   -3.8909   -0.9633 C.ar      1 <0>        -0.1529
     11 C8         -4.8774   -4.6721   -1.7478 C.ar      1 <0>         0.0993
     12 N4         -4.3902   -5.6766   -2.4496 N.ar      1 <0>        -0.4789
     13 C9         -3.1059   -5.9754   -2.4334 C.ar      1 <0>         0.0984
     14 C10        -2.2173   -5.2348   -1.6771 C.ar      1 <0>        -0.1541
     15 C11         0.0110    0.2564   -2.2833 C.2       1 <0>         0.6048
     16 O1         -0.9390    0.9682   -2.5529 O.2       1 <0>        -0.5001
     17 N5          0.8749   -0.1096   -3.2508 N.am      1 <0>        -0.6623
     18 C12         0.7501    0.4242   -4.5394 C.ar      1 <0>         0.1235
     19 C13        -0.5092    0.6290   -5.0876 C.ar      1 <0>        -0.0796
     20 C14        -0.6314    1.1558   -6.3581 C.ar      1 <0>        -0.1031
     21 C15         0.5034    1.4801   -7.0871 C.ar      1 <0>         0.0951
     22 C16         1.7618    1.2758   -6.5402 C.ar      1 <0>        -0.1711
     23 C17         1.8856    0.7543   -5.2675 C.ar      1 <0>        -0.0970
     24 O2          0.3823    1.9980   -8.3385 O.3       1 <0>        -0.3089
     25 C18         1.5925    2.3089   -9.0319 C.3       1 <0>         0.6038
     26 F1          2.3576    1.1468   -9.1785 F         1 <0>        -0.1647
     27 F2          1.2863    2.8279  -10.2945 F         1 <0>        -0.1294
     28 F3          2.3182    3.2561   -8.3017 F         1 <0>        -0.1645
     29 H1          2.8349    1.3033   -0.4286 H         1 <0>         0.0856
     30 H2          1.3801    2.1929   -0.9389 H         1 <0>         0.0899
     31 H3          1.8458    2.1591    0.7787 H         1 <0>         0.1004
     32 H4         -0.0845   -2.0489    1.7745 H         1 <0>         0.1857
     33 H5         -1.5305   -2.1161   -1.7930 H         1 <0>         0.4014
     34 H6         -0.9243   -3.9654    0.2537 H         1 <0>         0.0752
     35 H7         -2.2945   -2.9639    0.7904 H         1 <0>         0.0748
     36 H8         -4.4552   -3.0700   -0.3903 H         1 <0>         0.1380
     37 H9         -5.9352   -4.4576   -1.7863 H         1 <0>         0.1589
     38 H10        -2.7437   -6.8059   -3.0211 H         1 <0>         0.1584
     39 H11        -1.1658   -5.4813   -1.6718 H         1 <0>         0.1373
     40 H12         1.5831   -0.7428   -3.0546 H         1 <0>         0.4157
     41 H13        -1.3928    0.3760   -4.5205 H         1 <0>         0.1504
     42 H14        -1.6108    1.3152   -6.7846 H         1 <0>         0.1452
     43 H15         2.6449    1.5284   -7.1083 H         1 <0>         0.1393
     44 H16         2.8652    0.5994   -4.8402 H         1 <0>         0.1383
@<TRIPOS>BOND
     1    1    2 1
     2    1   29 1
     3    1   30 1
     4    1   31 1
     5    2    6 1
     6    2    3 1
     7    3    4 2
     8    3   15 1
     9    4    5 1
    10    4    7 1
    11    5    6 2
    12    5   32 1
    13    7    8 1
    14    7   33 1
    15    8    9 1
    16    8   34 1
    17    8   35 1
    18    9   14 ar
    19    9   10 ar
    20   10   11 ar
    21   10   36 1
    22   11   12 ar
    23   11   37 1
    24   12   13 ar
    25   13   14 ar
    26   13   38 1
    27   14   39 1
    28   15   16 2
    29   15   17 am
    30   17   18 1
    31   17   40 1
    32   18   23 ar
    33   18   19 ar
    34   19   20 ar
    35   19   41 1
    36   20   21 ar
    37   20   42 1
    38   21   22 ar
    39   21   24 1
    40   22   23 ar
    41   22   43 1
    42   23   44 1
    43   24   25 1
    44   25   26 1
    45   25   27 1
    46   25   28 1
@<TRIPOS>MOLECULE
CHEMBL272875
   53    56     0     0     0
SMALL
USER_CHARGES

@<TRIPOS>ATOM
      1 C1          1.7794   -3.3874    0.0173 C.3       1 <0>        -0.1668
      2 C2          0.8045   -2.2083    0.0098 C.3       1 <0>         0.1290
      3 N1         -0.5712   -2.7121    0.0150 N.am      1 <0>        -0.7393
      4 C3         -1.6054   -1.8479    0.0098 C.2       1 <0>         0.7123
      5 O1         -1.3992   -0.6526    0.0947 O.2       1 <0>        -0.5610
      6 N2         -2.8681   -2.3086   -0.0896 N.am      1 <0>        -0.5706
      7 C4         -3.1538   -3.7536   -0.1007 C.3       1 <0>         0.0637
      8 C5         -4.2286   -4.0052   -1.1679 C.3       1 <0>         0.0492
      9 O2         -5.3858   -3.2293   -0.8486 O.3       1 <0>        -0.3047
     10 C6         -5.2079   -1.9109   -0.5700 C.ar      1 <0>         0.1055
     11 C7         -3.9609   -1.4256   -0.1805 C.ar      1 <0>         0.1069
     12 C8         -3.7926   -0.0818    0.1105 C.ar      1 <0>        -0.1051
     13 C9         -4.8663    0.7844    0.0178 C.ar      1 <0>        -0.1181
     14 C10        -6.1109    0.3075   -0.3666 C.ar      1 <0>         0.0855
     15 C11        -6.2811   -1.0391   -0.6684 C.ar      1 <0>        -0.1370
     16 O3         -7.1652    1.1608   -0.4581 O.3       1 <0>        -0.2420
     17 C12        -8.1008    1.1241    0.5226 C.ar      1 <0>         0.1840
     18 C13        -8.0402    0.1781    1.5313 C.ar      1 <0>        -0.2656
     19 C14        -9.0125    0.1654    2.5227 C.ar      1 <0>         0.1645
     20 N3         -9.9993    1.0308    2.5352 N.ar      1 <0>        -0.4951
     21 C15       -10.1194    1.9720    1.5918 C.ar      1 <0>         0.1715
     22 C16        -9.1639    2.0539    0.5497 C.ar      1 <0>        -0.1075
     23 C17        -9.2896    3.0453   -0.4356 C.ar      1 <0>        -0.1531
     24 C18       -10.3299    3.9266   -0.3781 C.ar      1 <0>         0.1121
     25 C19       -11.2746    3.8515    0.6559 C.ar      1 <0>         0.1508
     26 C20       -11.1824    2.8905    1.6206 C.ar      1 <0>        -0.1800
     27 O4        -12.3017    4.7406    0.6914 O.3       1 <0>        -0.3002
     28 C21       -13.2322    4.6143    1.7685 C.3       1 <0>         0.0211
     29 O5        -10.4514    4.8875   -1.3325 O.3       1 <0>        -0.3021
     30 C22        -9.4573    4.9121   -2.3586 C.3       1 <0>         0.0228
     31 H1          2.8029   -3.0126    0.0135 H         1 <0>         0.0798
     32 H2          1.6159   -3.9883    0.9119 H         1 <0>         0.0631
     33 H3          1.6140   -4.0013   -0.8680 H         1 <0>         0.0624
     34 H4          0.9699   -1.5944    0.8951 H         1 <0>         0.0722
     35 H5          0.9679   -1.6074   -0.8848 H         1 <0>         0.0702
     36 H6         -0.7377   -3.6677    0.0221 H         1 <0>         0.3973
     37 H7         -2.2487   -4.3077   -0.3494 H         1 <0>         0.1024
     38 H8         -3.5226   -4.0653    0.8764 H         1 <0>         0.0948
     39 H9         -3.8487   -3.7092   -2.1458 H         1 <0>         0.0743
     40 H10        -4.4902   -5.0632   -1.1805 H         1 <0>         0.1286
     41 H11        -2.8235    0.2890    0.4099 H         1 <0>         0.1851
     42 H12        -4.7361    1.8321    0.2450 H         1 <0>         0.1401
     43 H13        -7.2509   -1.4082   -0.9676 H         1 <0>         0.1446
     44 H14        -7.2402   -0.5474    1.5470 H         1 <0>         0.1424
     45 H15        -8.9553   -0.5772    3.3048 H         1 <0>         0.1621
     46 H16        -8.5665    3.1106   -1.2351 H         1 <0>         0.1491
     47 H17       -11.9171    2.8441    2.4108 H         1 <0>         0.1536
     48 H18       -13.6983    3.6296    1.7324 H         1 <0>         0.0605
     49 H19       -12.7085    4.7337    2.7170 H         1 <0>         0.0605
     50 H20       -13.9995    5.3831    1.6779 H         1 <0>         0.1053
     51 H21        -8.4760    5.0672   -1.9102 H         1 <0>         0.0582
     52 H22        -9.4656    3.9635   -2.8954 H         1 <0>         0.0581
     53 H23        -9.6719    5.7244   -3.0531 H         1 <0>         0.1045
@<TRIPOS>BOND
     1    1    2 1
     2    1   31 1
     3    1   32 1
     4    1   33 1
     5    2    3 1
     6    2   34 1
     7    2   35 1
     8    3    4 am
     9    3   36 1
    10    4    5 2
    11    4    6 am
    12    6   11 1
    13    6    7 1
    14    7    8 1
    15    7   37 1
    16    7   38 1
    17    8    9 1
    18    8   39 1
    19    8   40 1
    20    9   10 1
    21   10   15 ar
    22   10   11 ar
    23   11   12 ar
    24   12   13 ar
    25   12   41 1
    26   13   14 ar
    27   13   42 1
    28   14   15 ar
    29   14   16 1
    30   15   43 1
    31   16   17 1
    32   17   22 ar
    33   17   18 ar
    34   18   19 ar
    35   18   44 1
    36   19   20 ar
    37   19   45 1
    38   20   21 ar
    39   21   26 ar
    40   21   22 ar
    41   22   23 ar
    42   23   24 ar
    43   23   46 1
    44   24   25 ar
    45   24   29 1
    46   25   26 ar
    47   25   27 1
    48   26   47 1
    49   27   28 1
    50   28   48 1
    51   28   49 1
    52   28   50 1
    53   29   30 1
    54   30   51 1
    55   30   52 1
    56   30   53 1
@<TRIPOS>MOLECULE
CHEMBL365064
   43    47     0     0     0
SMALL
USER_CHARGES

@<TRIPOS>ATOM
      1 C1          0.4580    1.9893   -0.4301 C.ar      1 <0>        -0.1144
      2 C2          1.7352    2.5150   -0.3426 C.ar      1 <0>        -0.1175
      3 C3          2.8241    1.6756   -0.2340 C.ar      1 <0>        -0.1021
      4 C4          2.6353    0.2915   -0.2121 C.ar      1 <0>        -0.0254
      5 C5          1.3432   -0.2321   -0.3004 C.ar      1 <0>        -0.0974
      6 C6          0.2636    0.6192   -0.4089 C.ar      1 <0>        -0.1180
      7 C7          3.7966   -0.6139   -0.0965 C.2       1 <0>        -0.0518
      8 C8          4.2702   -1.5681   -1.1038 C.ar      1 <0>        -0.1099
      9 C9          3.8296   -1.9120   -2.3856 C.ar      1 <0>        -0.0578
     10 C10         4.4972   -2.8654   -3.0997 C.ar      1 <0>        -0.1480
     11 C11         5.6113   -3.4973   -2.5621 C.ar      1 <0>        -0.0824
     12 C12         6.0631   -3.1747   -1.3018 C.ar      1 <0>        -0.1341
     13 C13         5.3991   -2.2050   -0.5540 C.ar      1 <0>         0.1316
     14 N1          5.6144   -1.6870    0.7029 N.pl3     1 <0>        -0.5517
     15 H1          6.3314   -1.9545    1.2989 H         1 <0>         0.4221
     16 C14         4.6637   -0.7265    0.9900 C.2       1 <0>         0.0603
     17 C15         4.5822    0.0126    2.1807 C.2       1 <0>         0.1323
     18 C16         5.7426    0.3728    2.8562 C.2       1 <0>        -0.2585
     19 C17         5.8498    1.0029    4.1859 C.2       1 <0>         0.1770
     20 N2          7.1221    1.1677    4.4379 N.2       1 <0>        -0.2097
     21 N3          7.9090    0.7006    3.3856 N.am      1 <0>        -0.5539
     22 C18         7.1297    0.2033    2.4046 C.2       1 <0>         0.5253
     23 O1          7.5019   -0.2867    1.3518 O.2       1 <0>        -0.5029
     24 C19         4.7239    1.3799    5.0715 C.ar      1 <0>         0.1362
     25 C20         4.9749    1.9777    6.3079 C.ar      1 <0>         0.0944
     26 N4          3.9680    2.3119    7.0924 N.ar      1 <0>        -0.4323
     27 C21         2.7235    2.0814    6.7090 C.ar      1 <0>         0.0664
     28 C22         2.4699    1.4891    5.4842 C.ar      1 <0>         0.0622
     29 N5          3.4699    1.1553    4.6892 N.ar      1 <0>        -0.4231
     30 H2         -0.3914    2.6515   -0.5108 H         1 <0>         0.1229
     31 H3          1.8796    3.5852   -0.3597 H         1 <0>         0.1237
     32 H4          3.8203    2.0872   -0.1665 H         1 <0>         0.1201
     33 H5          1.1901   -1.3011   -0.2844 H         1 <0>         0.1250
     34 H6         -0.7359    0.2158   -0.4773 H         1 <0>         0.1252
     35 H7          2.9637   -1.4252   -2.8095 H         1 <0>         0.1245
     36 H8          4.1563   -3.1304   -4.0896 H         1 <0>         0.1263
     37 H9          6.1286   -4.2499   -3.1386 H         1 <0>         0.1288
     38 H10         6.9302   -3.6729   -0.8939 H         1 <0>         0.1235
     39 H11         3.6179    0.3015    2.5721 H         1 <0>         0.1789
     40 H12         8.8784    0.7258    3.3645 H         1 <0>         0.4445
     41 H13         5.9910    2.1658    6.6217 H         1 <0>         0.1800
     42 H14         1.9022    2.3561    7.3542 H         1 <0>         0.1785
     43 H15         1.4515    1.3032    5.1761 H         1 <0>         0.1814
@<TRIPOS>BOND
     1    1    6 ar
     2    1    2 ar
     3    1   30 1
     4    2    3 ar
     5    2   31 1
     6    3    4 ar
     7    3   32 1
     8    4    5 ar
     9    4    7 1
    10    5    6 ar
    11    5   33 1
    12    6   34 1
    13    7   16 2
    14    7    8 1
    15    8   13 ar
    16    8    9 ar
    17    9   10 ar
    18    9   35 1
    19   10   11 ar
    20   10   36 1
    21   11   12 ar
    22   11   37 1
    23   12   13 ar
    24   12   38 1
    25   13   14 1
    26   14   15 1
    27   14   16 1
    28   16   17 1
    29   17   18 2
    30   17   39 1
    31   18   22 1
    32   18   19 1
    33   19   20 2
    34   19   24 1
    35   20   21 1
    36   21   22 am
    37   21   40 1
    38   22   23 2
    39   24   29 ar
    40   24   25 ar
    41   25   26 ar
    42   25   41 1
    43   26   27 ar
    44   27   28 ar
    45   27   42 1
    46   28   29 ar
    47   28   43 1
@<TRIPOS>MOLECULE
CHEMBL365064__1
   42    46     0     0     0
SMALL
USER_CHARGES

@<TRIPOS>ATOM
      1 C1          0.4927    2.0249   -0.4578 C.ar      1 <0>        -0.1268
      2 C2          1.7744    2.5388   -0.3639 C.ar      1 <0>        -0.1188
      3 C3          2.8546    1.6894   -0.2476 C.ar      1 <0>        -0.1027
      4 C4          2.6526    0.3068   -0.2242 C.ar      1 <0>         0.0051
      5 C5          1.3555   -0.2048   -0.3191 C.ar      1 <0>        -0.1055
      6 C6          0.2850    0.6567   -0.4354 C.ar      1 <0>        -0.1225
      7 C7          3.8039   -0.6090   -0.1005 C.2       1 <0>        -0.1275
      8 C8          4.2741   -1.5689   -1.1022 C.ar      1 <0>        -0.0959
      9 C9          3.8366   -1.9111   -2.3864 C.ar      1 <0>        -0.0698
     10 C10         4.4985   -2.8721   -3.0950 C.ar      1 <0>        -0.1546
     11 C11         5.6042   -3.5136   -2.5506 C.ar      1 <0>        -0.1057
     12 C12         6.0525   -3.1936   -1.2886 C.ar      1 <0>        -0.1242
     13 C13         5.3945   -2.2160   -0.5454 C.ar      1 <0>         0.1148
     14 N1          5.6095   -1.6994    0.7116 N.pl3     1 <0>        -0.5333
     15 H1          6.3213   -1.9737    1.3108 H         1 <0>         0.4258
     16 C14         4.6662   -0.7285    0.9941 C.2       1 <0>         0.1317
     17 C15         4.5864    0.0099    2.1789 C.2       1 <0>         0.0270
     18 C16         5.7553    0.3722    2.8577 C.2       1 <0>        -0.1611
     19 C17         5.8823    1.0011    4.1850 C.2       1 <0>        -0.0935
     20 N2          7.1816    1.1429    4.3859 N.2       1 <0>        -0.1485
     21 N3          7.8617    0.7017    3.3952 N.2       1 <0>        -0.4483
     22 C18         7.1032    0.2159    2.4344 C.2       1 <0>         0.3908
     23 O1          7.5268   -0.3271    1.2641 O.3       1 <0>        -0.6217
     24 C19         4.7879    1.3910    5.0988 C.ar      1 <0>         0.2119
     25 C20         5.0796    1.9867    6.3292 C.ar      1 <0>         0.0525
     26 N4          4.0984    2.3322    7.1401 N.ar      1 <0>        -0.4348
     27 C21         2.8410    2.1159    6.7906 C.ar      1 <0>         0.0044
     28 C22         2.5467    1.5262    5.5740 C.ar      1 <0>         0.0623
     29 N5          3.5202    1.1813    4.7511 N.ar      1 <0>        -0.4541
     30 H2         -0.3499    2.6950   -0.5446 H         1 <0>         0.1168
     31 H3          1.9290    3.6075   -0.3820 H         1 <0>         0.1191
     32 H4          3.8542    2.0918   -0.1750 H         1 <0>         0.1204
     33 H5          1.1920   -1.2722   -0.3021 H         1 <0>         0.1212
     34 H6         -0.7179    0.2628   -0.5088 H         1 <0>         0.1189
     35 H7          2.9776   -1.4168   -2.8157 H         1 <0>         0.1165
     36 H8          4.1599   -3.1359   -4.0860 H         1 <0>         0.1169
     37 H9          6.1174   -4.2717   -3.1235 H         1 <0>         0.1201
     38 H10         6.9131   -3.6990   -0.8759 H         1 <0>         0.1183
     39 H11         3.6226    0.3006    2.5701 H         1 <0>         0.1594
     40 H12         6.1059    2.1632    6.6154 H         1 <0>         0.1722
     41 H13         2.0409    2.4005    7.4579 H         1 <0>         0.1602
     42 H14         1.5181    1.3516    5.2948 H         1 <0>         0.1631
@<TRIPOS>BOND
     1    1    6 ar
     2    1    2 ar
     3    1   30 1
     4    2    3 ar
     5    2   31 1
     6    3    4 ar
     7    3   32 1
     8    4    5 ar
     9    4    7 1
    10    5    6 ar
    11    5   33 1
    12    6   34 1
    13    7   16 2
    14    7    8 1
    15    8   13 ar
    16    8    9 ar
    17    9   10 ar
    18    9   35 1
    19   10   11 ar
    20   10   36 1
    21   11   12 ar
    22   11   37 1
    23   12   13 ar
    24   12   38 1
    25   13   14 1
    26   14   15 1
    27   14   16 1
    28   16   17 1
    29   17   18 2
    30   17   39 1
    31   18   22 1
    32   18   19 1
    33   19   20 2
    34   19   24 1
    35   20   21 1
    36   21   22 2
    37   22   23 1
    38   24   29 ar
    39   24   25 ar
    40   25   26 ar
    41   25   40 1
    42   26   27 ar
    43   27   28 ar
    44   27   41 1
    45   28   29 ar
    46   28   42 1
@<TRIPOS>MOLECULE
CHEMBL495727
   51    55     0     0     0
SMALL
USER_CHARGES

@<TRIPOS>ATOM
      1 C1         -0.0167    1.3832    0.0096 C.ar      1 <0>        -0.0900
      2 C2          1.1624    2.0986    0.0022 C.ar      1 <0>        -0.1093
      3 C3          2.3769    1.4282   -0.0129 C.ar      1 <0>         0.0585
      4 C4          2.4020    0.0222   -0.0207 C.ar      1 <0>         0.0556
      5 C5          1.1969   -0.6870   -0.0127 C.ar      1 <0>        -0.0377
      6 C6          0.0021   -0.0041    0.0020 C.ar      1 <0>        -0.0874
      7 C7         -1.2962   -0.7693    0.0108 C.3       1 <0>         0.0982
      8 N1         -1.7317   -1.0105   -1.3713 N.3       1 <0>        -0.5319
      9 C8         -2.0812    0.2506   -2.0413 C.3       1 <0>         0.0140
     10 C9         -2.4711   -0.0400   -3.4930 C.3       1 <0>         0.0628
     11 O1         -3.5484   -0.9803   -3.5128 O.3       1 <0>        -0.3858
     12 C10        -3.2423   -2.2203   -2.8694 C.3       1 <0>         0.0630
     13 C11        -2.8603   -1.9518   -1.4114 C.3       1 <0>         0.0170
     14 N2          3.7040   -0.3552   -0.0358 N.2       1 <0>        -0.4791
     15 C12         4.4709    0.7083   -0.0379 C.2       1 <0>         0.3677
     16 N3          3.6969    1.8375   -0.0241 N.pl3     1 <0>        -0.5827
     17 H1          4.0155    2.7537   -0.0227 H         1 <0>         0.4299
     18 C13         5.9482    0.6906   -0.0529 C.2       1 <0>         0.1128
     19 C14         6.7655   -0.4629   -0.0734 C.2       1 <0>         0.0625
     20 C15         8.0574   -0.0542   -0.0820 C.2       1 <0>         0.0467
     21 N4          8.0646    1.3049   -0.0675 N.pl3     1 <0>        -0.4518
     22 H2          8.8531    1.8699   -0.0696 H         1 <0>         0.4522
     23 N5          6.7361    1.7481   -0.0552 N.2       1 <0>        -0.2610
     24 N6          6.3179   -1.7953   -0.0825 N.am      1 <0>        -0.6484
     25 C16         7.2097   -2.8056   -0.1024 C.2       1 <0>         0.7112
     26 O2          8.4015   -2.5644   -0.1124 O.2       1 <0>        -0.5835
     27 N7          6.7806   -4.0832   -0.1111 N.am      1 <0>        -0.7107
     28 C17         7.7500   -5.1814   -0.1326 C.3       1 <0>         0.0984
     29 C18         7.4710   -6.3514   -1.0782 C.3       1 <0>        -0.1941
     30 C19         7.3013   -6.5309    0.4317 C.3       1 <0>        -0.1895
     31 H3         -0.9613    1.9065    0.0260 H         1 <0>         0.1292
     32 H4          1.1404    3.1784    0.0078 H         1 <0>         0.1265
     33 H5          1.2037   -1.7669   -0.0185 H         1 <0>         0.1329
     34 H6         -1.1522   -1.7232    0.5181 H         1 <0>         0.0877
     35 H7         -2.0559   -0.1898    0.5352 H         1 <0>         0.0478
     36 H8         -2.9207    0.7164   -1.5252 H         1 <0>         0.0435
     37 H9         -1.2233    0.9227   -2.0224 H         1 <0>         0.0909
     38 H10        -2.7857    0.8844   -3.9773 H         1 <0>         0.0978
     39 H11        -1.6147   -0.4564   -4.0234 H         1 <0>         0.0598
     40 H12        -4.1148   -2.8728   -2.9028 H         1 <0>         0.0988
     41 H13        -2.4084   -2.7001   -3.3817 H         1 <0>         0.0605
     42 H14        -2.5711   -2.8874   -0.9327 H         1 <0>         0.0882
     43 H15        -3.7122   -1.5212   -0.8852 H         1 <0>         0.0444
     44 H16         8.9269   -0.6946   -0.0972 H         1 <0>         0.2141
     45 H17         5.3672   -1.9876   -0.0745 H         1 <0>         0.4224
     46 H18         5.8299   -4.2755   -0.1031 H         1 <0>         0.4015
     47 H19         8.7902   -4.8932    0.0188 H         1 <0>         0.1414
     48 H20         6.5663   -6.3041   -1.6842 H         1 <0>         0.0976
     49 H21         8.3279   -6.8332   -1.5492 H         1 <0>         0.1039
     50 H22         8.0465   -7.1307    0.9541 H         1 <0>         0.1053
     51 H23         6.2849   -6.6016    0.8191 H         1 <0>         0.0980
@<TRIPOS>BOND
     1    1    6 ar
     2    1    2 ar
     3    1   31 1
     4    2    3 ar
     5    2   32 1
     6    3   16 1
     7    3    4 ar
     8    4    5 ar
     9    4   14 1
    10    5    6 ar
    11    5   33 1
    12    6    7 1
    13    7    8 1
    14    7   34 1
    15    7   35 1
    16    8   13 1
    17    8    9 1
    18    9   10 1
    19    9   36 1
    20    9   37 1
    21   10   11 1
    22   10   38 1
    23   10   39 1
    24   11   12 1
    25   12   13 1
    26   12   40 1
    27   12   41 1
    28   13   42 1
    29   13   43 1
    30   14   15 2
    31   15   16 1
    32   15   18 1
    33   16   17 1
    34   18   23 2
    35   18   19 1
    36   19   20 2
    37   19   24 1
    38   20   21 1
    39   20   44 1
    40   21   22 1
    41   21   23 1
    42   24   25 am
    43   24   45 1
    44   25   26 2
    45   25   27 am
    46   27   28 1
    47   27   46 1
    48   28   30 1
    49   28   29 1
    50   28   47 1
    51   29   30 1
    52   29   48 1
    53   29   49 1
    54   30   50 1
    55   30   51 1
@<TRIPOS>MOLECULE
CHEMBL495727__1
   51    55     0     0     0
SMALL
USER_CHARGES

@<TRIPOS>ATOM
      1 C1         -0.0167    1.3831    0.0096 C.ar      1 <0>        -0.0887
      2 C2          1.1627    2.0986    0.0022 C.ar      1 <0>        -0.1106
      3 C3          2.3770    1.4285   -0.0130 C.ar      1 <0>         0.0600
      4 C4          2.4023    0.0224   -0.0208 C.ar      1 <0>         0.0578
      5 C5          1.1970   -0.6870   -0.0135 C.ar      1 <0>        -0.0380
      6 C6          0.0021   -0.0041    0.0020 C.ar      1 <0>        -0.0853
      7 C7         -1.2962   -0.7693    0.0108 C.3       1 <0>         0.0974
      8 N1         -1.7318   -1.0105   -1.3712 N.3       1 <0>        -0.5319
      9 C8         -2.0813    0.2506   -2.0411 C.3       1 <0>         0.0140
     10 C9         -2.4713   -0.0400   -3.4928 C.3       1 <0>         0.0628
     11 O1         -3.5486   -0.9804   -3.5126 O.3       1 <0>        -0.3854
     12 C10        -3.2424   -2.2204   -2.8692 C.3       1 <0>         0.0629
     13 C11        -2.8603   -1.9518   -1.4112 C.3       1 <0>         0.0170
     14 N2          3.7036   -0.3562   -0.0353 N.2       1 <0>        -0.4774
     15 C12         4.4730    0.7087   -0.0369 C.2       1 <0>         0.3571
     16 N3          3.6973    1.8393   -0.0234 N.pl3     1 <0>        -0.5976
     17 H1          4.0152    2.7557   -0.0218 H         1 <0>         0.4231
     18 C13         5.9430    0.6909   -0.0506 C.2       1 <0>         0.0734
     19 C14         6.7538   -0.4319   -0.0644 C.2       1 <0>         0.1080
     20 C15         8.0822    0.0081   -0.0747 C.2       1 <0>         0.0527
     21 N4          8.0923    1.3163   -0.0678 N.2       1 <0>        -0.2437
     22 H2          6.4934    2.7109   -0.0552 H         1 <0>         0.4431
     23 N5          6.7718    1.7818   -0.0582 N.pl3     1 <0>        -0.4691
     24 N6          6.3226   -1.7651   -0.0670 N.am      1 <0>        -0.6478
     25 C16         7.2258   -2.7654   -0.0811 C.2       1 <0>         0.7127
     26 O2          8.4147   -2.5110   -0.0915 O.2       1 <0>        -0.5747
     27 N7          6.8111   -4.0478   -0.0836 N.am      1 <0>        -0.7097
     28 C17         7.7928   -5.1351   -0.0989 C.3       1 <0>         0.0977
     29 C18         7.5278   -6.3130   -1.0387 C.3       1 <0>        -0.1937
     30 C19         7.3589   -6.4867    0.4720 C.3       1 <0>        -0.1892
     31 H3         -0.9613    1.9064    0.0260 H         1 <0>         0.1301
     32 H4          1.1406    3.1784    0.0079 H         1 <0>         0.1265
     33 H5          1.2038   -1.7670   -0.0192 H         1 <0>         0.1340
     34 H6         -1.1522   -1.7232    0.5181 H         1 <0>         0.0882
     35 H7         -2.0559   -0.1899    0.5354 H         1 <0>         0.0484
     36 H8         -2.9208    0.7164   -1.5250 H         1 <0>         0.0438
     37 H9         -1.2234    0.9227   -2.0223 H         1 <0>         0.0903
     38 H10        -2.7860    0.8843   -3.9772 H         1 <0>         0.0980
     39 H11        -1.6149   -0.4564   -4.0233 H         1 <0>         0.0598
     40 H12        -4.1149   -2.8729   -2.9025 H         1 <0>         0.0993
     41 H13        -2.4086   -2.7001   -3.3816 H         1 <0>         0.0606
     42 H14        -2.5710   -2.8874   -0.9325 H         1 <0>         0.0885
     43 H15        -3.7123   -1.5212   -0.8850 H         1 <0>         0.0448
     44 H16         8.9552   -0.6276   -0.0862 H         1 <0>         0.2193
     45 H17         5.3741   -1.9682   -0.0587 H         1 <0>         0.4219
     46 H18         5.8626   -4.2508   -0.0753 H         1 <0>         0.4013
     47 H19         8.8296   -4.8345    0.0518 H         1 <0>         0.1426
     48 H20         6.6230   -6.2789   -1.6457 H         1 <0>         0.0975
     49 H21         8.3903   -6.7875   -1.5066 H         1 <0>         0.1044
     50 H22         8.1104   -7.0755    0.9980 H         1 <0>         0.1057
     51 H23         6.3431   -6.5669    0.8589 H         1 <0>         0.0979
@<TRIPOS>BOND
     1    1    6 ar
     2    1    2 ar
     3    1   31 1
     4    2    3 ar
     5    2   32 1
     6    3   16 1
     7    3    4 ar
     8    4    5 ar
     9    4   14 1
    10    5    6 ar
    11    5   33 1
    12    6    7 1
    13    7    8 1
    14    7   34 1
    15    7   35 1
    16    8   13 1
    17    8    9 1
    18    9   10 1
    19    9   36 1
    20    9   37 1
    21   10   11 1
    22   10   38 1
    23   10   39 1
    24   11   12 1
    25   12   13 1
    26   12   40 1
    27   12   41 1
    28   13   42 1
    29   13   43 1
    30   14   15 2
    31   15   16 1
    32   15   18 1
    33   16   17 1
    34   18   19 2
    35   18   23 1
    36   19   20 1
    37   19   24 1
    38   20   21 2
    39   20   44 1
    40   21   23 1
    41   22   23 1
    42   24   25 am
    43   24   45 1
    44   25   26 2
    45   25   27 am
    46   27   28 1
    47   27   46 1
    48   28   30 1
    49   28   29 1
    50   28   47 1
    51   29   30 1
    52   29   48 1
    53   29   49 1
    54   30   50 1
    55   30   51 1
@<TRIPOS>MOLECULE
CHEMBL194911
   58    62     0     0     0
SMALL
USER_CHARGES

@<TRIPOS>ATOM
      1 C1         -0.2051   -0.4723    1.3529 C.3       1 <0>         0.0243
      2 O1         -0.6021   -0.0808    0.0371 O.3       1 <0>        -0.3132
      3 C2          0.0790   -0.6308   -1.0020 C.ar      1 <0>         0.1476
      4 C3          1.1052   -1.5339   -0.7565 C.ar      1 <0>        -0.2072
      5 C4          1.7988   -2.0944   -1.8071 C.ar      1 <0>        -0.0353
      6 C5          1.4679   -1.7529   -3.1214 C.ar      1 <0>        -0.0710
      7 C6          0.4342   -0.8440   -3.3635 C.ar      1 <0>        -0.0471
      8 C7         -0.2570   -0.2925   -2.3065 C.ar      1 <0>        -0.1522
      9 C8          2.2075   -2.3495   -4.2492 C.2       1 <0>         0.0909
     10 C9          2.4964   -3.6799   -4.3888 C.2       1 <0>        -0.0895
     11 C10         3.2368   -3.7951   -5.6518 C.ar      1 <0>        -0.2785
     12 C11         3.8157   -4.8475   -6.3735 C.ar      1 <0>         0.4997
     13 N1          4.4278   -4.5642   -7.5205 N.ar      1 <0>        -0.5893
     14 C12         4.4885   -3.3234   -7.9675 C.ar      1 <0>         0.3747
     15 N2          3.9586   -2.3070   -7.3207 N.ar      1 <0>        -0.5453
     16 C13         3.3251   -2.4906   -6.1647 C.ar      1 <0>         0.3296
     17 O2          2.6984   -1.6690   -5.3049 O.3       1 <0>        -0.1657
     18 N3          3.7528   -6.1476   -5.9054 N.pl3     1 <0>        -0.8221
     19 C14         2.1376   -4.7748   -3.4597 C.ar      1 <0>        -0.0354
     20 C15         3.1355   -5.4470   -2.7525 C.ar      1 <0>        -0.0929
     21 C16         2.7981   -6.4660   -1.8876 C.ar      1 <0>        -0.1127
     22 C17         1.4659   -6.8242   -1.7196 C.ar      1 <0>         0.1636
     23 C18         0.4698   -6.1569   -2.4224 C.ar      1 <0>        -0.1357
     24 C19         0.8002   -5.1335   -3.2848 C.ar      1 <0>        -0.0739
     25 N4          1.1267   -7.8593   -0.8413 N.am      1 <0>        -0.6772
     26 C20         1.8220   -8.0290    0.3008 C.2       1 <0>         0.7087
     27 O3          2.7954   -7.3368    0.5285 O.2       1 <0>        -0.5488
     28 N5          1.4382   -8.9658    1.1904 N.am      1 <0>        -0.6749
     29 C21         2.1029   -9.0798    2.4181 C.ar      1 <0>         0.1325
     30 C22         3.4336   -8.7003    2.5265 C.ar      1 <0>        -0.0563
     31 C23         4.0865   -8.8132    3.7387 C.ar      1 <0>        -0.1732
     32 C24         3.4167   -9.3042    4.8443 C.ar      1 <0>        -0.0576
     33 C25         2.0912   -9.6840    4.7413 C.ar      1 <0>        -0.1311
     34 C26         1.4295   -9.5679    3.5324 C.ar      1 <0>         0.1029
     35 F1          0.1328   -9.9336    3.4329 F         1 <0>        -0.1272
     36 C27         5.5313   -8.4011    3.8562 C.3       1 <0>         0.5127
     37 F2          5.6034   -7.0492    4.2086 F         1 <0>        -0.1721
     38 F3          6.1580   -9.1736    4.8399 F         1 <0>        -0.1742
     39 F4          6.1737   -8.5981    2.6291 F         1 <0>        -0.1731
     40 H1         -0.3239   -1.5502    1.4626 H         1 <0>         0.0577
     41 H2          0.8392   -0.2037    1.5123 H         1 <0>         0.0589
     42 H3         -0.8278    0.0385    2.0873 H         1 <0>         0.1036
     43 H4          1.3602   -1.7971    0.2595 H         1 <0>         0.1356
     44 H5          2.5971   -2.7960   -1.6152 H         1 <0>         0.1312
     45 H6          0.1752   -0.5769   -4.3774 H         1 <0>         0.1370
     46 H7         -1.0587    0.4069   -2.4927 H         1 <0>         0.1390
     47 H8          4.9943   -3.1345   -8.9029 H         1 <0>         0.2124
     48 H9          3.3037   -6.3402   -5.0675 H         1 <0>         0.4132
     49 H10         4.1578   -6.8668   -6.4150 H         1 <0>         0.4114
     50 H11         4.1710   -5.1693   -2.8829 H         1 <0>         0.1296
     51 H12         3.5699   -6.9867   -1.3403 H         1 <0>         0.1456
     52 H13        -0.5646   -6.4378   -2.2899 H         1 <0>         0.1311
     53 H14         0.0254   -4.6125   -3.8276 H         1 <0>         0.1305
     54 H15         0.3913   -8.4548   -1.0544 H         1 <0>         0.4120
     55 H16         0.7018   -9.5612    0.9805 H         1 <0>         0.4162
     56 H17         3.9583   -8.3173    1.6638 H         1 <0>         0.1753
     57 H18         3.9302   -9.3916    5.7904 H         1 <0>         0.1501
     58 H19         1.5709  -10.0675    5.6066 H         1 <0>         0.1554
@<TRIPOS>BOND
     1    1    2 1
     2    1   40 1
     3    1   41 1
     4    1   42 1
     5    2    3 1
     6    3    8 ar
     7    3    4 ar
     8    4    5 ar
     9    4   43 1
    10    5    6 ar
    11    5   44 1
    12    6    7 ar
    13    6    9 1
    14    7    8 ar
    15    7   45 1
    16    8   46 1
    17    9   17 1
    18    9   10 2
    19   10   11 1
    20   10   19 1
    21   11   16 ar
    22   11   12 ar
    23   12   13 ar
    24   12   18 1
    25   13   14 ar
    26   14   15 ar
    27   14   47 1
    28   15   16 ar
    29   16   17 1
    30   18   48 1
    31   18   49 1
    32   19   24 ar
    33   19   20 ar
    34   20   21 ar
    35   20   50 1
    36   21   22 ar
    37   21   51 1
    38   22   23 ar
    39   22   25 1
    40   23   24 ar
    41   23   52 1
    42   24   53 1
    43   25   26 am
    44   25   54 1
    45   26   27 2
    46   26   28 am
    47   28   29 1
    48   28   55 1
    49   29   34 ar
    50   29   30 ar
    51   30   31 ar
    52   30   56 1
    53   31   32 ar
    54   31   36 1
    55   32   33 ar
    56   32   57 1
    57   33   34 ar
    58   33   58 1
    59   34   35 1
    60   36   37 1
    61   36   38 1
    62   36   39 1
@<TRIPOS>MOLECULE
CHEMBL118386
   51    55     0     0     0
SMALL
USER_CHARGES

@<TRIPOS>ATOM
      1 C1          0.0412    1.3793   -0.0820 C.ar      1 <0>        -0.0743
      2 C2          1.2263    2.0758   -0.2110 C.ar      1 <0>        -0.1403
      3 C3          2.4313    1.3852   -0.3237 C.ar      1 <0>        -0.0030
      4 C4          2.4355   -0.0074   -0.3059 C.ar      1 <0>        -0.1311
      5 C5          1.2421   -0.6982   -0.1762 C.ar      1 <0>         0.1377
      6 C6          0.0458   -0.0026   -0.0644 C.ar      1 <0>        -0.2021
      7 O1          1.2421   -2.0572   -0.1588 O.3       1 <0>        -0.2959
      8 C7         -0.0247   -2.7042   -0.0222 C.3       1 <0>         0.0660
      9 C8          0.1747   -4.2211   -0.0231 C.3       1 <0>         0.0538
     10 N1          0.9410   -4.6149    1.1668 N.3       1 <0>        -0.5311
     11 C9          1.5445   -5.9436    0.9888 C.3       1 <0>         0.0186
     12 C10         2.3806   -6.2881    2.2243 C.3       1 <0>         0.0627
     13 O2          1.5521   -6.2212    3.3881 O.3       1 <0>        -0.3849
     14 C11         0.9486   -4.9408    3.5924 C.3       1 <0>         0.0635
     15 C12         0.0981   -4.5827    2.3708 C.3       1 <0>         0.0140
     16 C13         3.7065    2.1315   -0.4629 C.2       1 <0>        -0.1488
     17 C14         4.4647    2.0358   -1.6507 C.2       1 <0>         0.1991
     18 N2          5.5905    2.6975   -1.7678 N.2       1 <0>        -0.4518
     19 C15         6.0418    3.4713   -0.7741 C.2       1 <0>         0.2665
     20 C16         7.1857    4.2657   -0.6422 C.2       1 <0>        -0.1743
     21 C17         7.1392    4.8544    0.6242 C.2       1 <0>         0.1085
     22 N3          6.0486    4.4580    1.2374 N.2       1 <0>        -0.3053
     23 N4          5.3374    3.5939    0.3973 N.pl3     1 <0>        -0.3106
     24 C18         4.1585    2.9239    0.5541 C.2       1 <0>         0.1826
     25 C19         8.2516    4.4489   -1.6588 C.2       1 <0>        -0.0383
     26 C20         8.6845    5.7225   -2.0136 C.2       1 <0>        -0.1454
     27 C21         9.6582    5.8489   -2.9443 C.2       1 <0>        -0.1737
     28 S1         10.0056    4.1486   -3.3609 S.3       1 <0>         0.0344
     29 C22         8.8333    3.3703   -2.2627 C.2       1 <0>        -0.1503
     30 H1         -0.8916    1.9160    0.0098 H         1 <0>         0.1296
     31 H2          1.2194    3.1557   -0.2248 H         1 <0>         0.1261
     32 H3          3.3668   -0.5472   -0.3933 H         1 <0>         0.1343
     33 H4         -0.8838   -0.5430    0.0370 H         1 <0>         0.1287
     34 H5         -0.4892   -2.3993    0.9155 H         1 <0>         0.0635
     35 H6         -0.6685   -2.4219   -0.8552 H         1 <0>         0.0688
     36 H7         -0.7967   -4.7153   -0.0095 H         1 <0>         0.0624
     37 H8          0.7197   -4.5155   -0.9200 H         1 <0>         0.0893
     38 H9          0.7574   -6.6870    0.8632 H         1 <0>         0.0440
     39 H10         2.1845   -5.9375    0.1065 H         1 <0>         0.0889
     40 H11         2.7835   -7.2956    2.1217 H         1 <0>         0.0997
     41 H12         3.2000   -5.5756    2.3194 H         1 <0>         0.0614
     42 H13         0.3159   -4.9740    4.4793 H         1 <0>         0.0989
     43 H14         1.7264   -4.1892    3.7273 H         1 <0>         0.0608
     44 H15        -0.3179   -3.5831    2.4973 H         1 <0>         0.0848
     45 H16        -0.7122   -5.3043    2.2673 H         1 <0>         0.0449
     46 H17         4.1167    1.4162   -2.4639 H         1 <0>         0.1830
     47 H18         7.8802    5.5259    1.0322 H         1 <0>         0.2016
     48 H19         3.5934    3.0159    1.4699 H         1 <0>         0.1821
     49 H20         8.2495    6.5973   -1.5533 H         1 <0>         0.1334
     50 H21        10.1096    6.7487   -3.3355 H         1 <0>         0.1861
     51 H22         8.6342    2.3191   -2.1151 H         1 <0>         0.1814
@<TRIPOS>BOND
     1    1    6 ar
     2    1    2 ar
     3    1   30 1
     4    2    3 ar
     5    2   31 1
     6    3    4 ar
     7    3   16 1
     8    4    5 ar
     9    4   32 1
    10    5    6 ar
    11    5    7 1
    12    6   33 1
    13    7    8 1
    14    8    9 1
    15    8   34 1
    16    8   35 1
    17    9   10 1
    18    9   36 1
    19    9   37 1
    20   10   15 1
    21   10   11 1
    22   11   12 1
    23   11   38 1
    24   11   39 1
    25   12   13 1
    26   12   40 1
    27   12   41 1
    28   13   14 1
    29   14   15 1
    30   14   42 1
    31   14   43 1
    32   15   44 1
    33   15   45 1
    34   16   24 2
    35   16   17 1
    36   17   18 2
    37   17   46 1
    38   18   19 1
    39   19   23 1
    40   19   20 2
    41   20   21 1
    42   20   25 1
    43   21   22 2
    44   21   47 1
    45   22   23 1
    46   23   24 1
    47   24   48 1
    48   25   29 2
    49   25   26 1
    50   26   27 2
    51   26   49 1
    52   27   28 1
    53   27   50 1
    54   28   29 1
    55   29   51 1
@<TRIPOS>MOLECULE
CHEMBL118386__1
   52    56     0     0     0
SMALL
USER_CHARGES

@<TRIPOS>ATOM
      1 C1         -0.3318    1.3552    0.1637 C.ar      1 <0>        -0.0714
      2 C2          0.8083    2.1327    0.1192 C.ar      1 <0>        -0.1222
      3 C3          2.0605    1.5282    0.0295 C.ar      1 <0>         0.0092
      4 C4          2.1575    0.1395   -0.0151 C.ar      1 <0>        -0.1231
      5 C5          1.0087   -0.6329    0.0300 C.ar      1 <0>         0.1165
      6 C6         -0.2352   -0.0228    0.1194 C.ar      1 <0>        -0.1950
      7 O1          1.0992   -1.9882   -0.0137 O.3       1 <0>        -0.3283
      8 C7         -0.1259   -2.7222    0.0370 C.3       1 <0>         0.0254
      9 C8          0.1747   -4.2211   -0.0231 C.3       1 <0>        -0.0002
     10 N1          0.9410   -4.6149    1.1668 N.4       1 <0>        -0.3872
     11 C9          1.3534   -6.0197    1.0412 C.3       1 <0>        -0.0437
     12 C10         2.1518   -6.4274    2.2820 C.3       1 <0>         0.0352
     13 O2          1.3508   -6.2173    3.4482 O.3       1 <0>        -0.3556
     14 C11         0.9041   -4.8672    3.6019 C.3       1 <0>         0.0369
     15 C12         0.1034   -4.4565    2.3636 C.3       1 <0>        -0.0498
     16 C13         3.2875    2.3617   -0.0190 C.2       1 <0>        -0.1670
     17 C14         4.0991    2.3725   -1.1748 C.2       1 <0>         0.1942
     18 N2          5.1818    3.1109   -1.2116 N.2       1 <0>        -0.4446
     19 C15         5.5385    3.8640   -0.1650 C.2       1 <0>         0.2610
     20 C16         6.6201    4.7240    0.0534 C.2       1 <0>        -0.1612
     21 C17         6.4815    5.2473    1.3416 C.2       1 <0>         0.1121
     22 N3          5.3954    4.7519    1.8871 N.2       1 <0>        -0.3006
     23 N4          4.7794    3.8844    0.9781 N.pl3     1 <0>        -0.3140
     24 C18         3.6426    3.1323    1.0519 C.2       1 <0>         0.1909
     25 C19         7.7126    5.0245   -0.9053 C.2       1 <0>        -0.0425
     26 C20         8.0735    6.3392   -1.1829 C.2       1 <0>        -0.1485
     27 C21         9.0743    6.5730   -2.0626 C.2       1 <0>        -0.1686
     28 S1          9.5521    4.9207   -2.5392 S.3       1 <0>         0.0431
     29 C22         8.3900    4.0162   -1.5305 C.2       1 <0>        -0.1531
     30 H1         -1.3015    1.8249    0.2378 H         1 <0>         0.1373
     31 H2          0.7295    3.2093    0.1536 H         1 <0>         0.1343
     32 H3          3.1257   -0.3337   -0.0850 H         1 <0>         0.1369
     33 H4         -1.1298   -0.6268    0.1548 H         1 <0>         0.1303
     34 H5         -0.6484   -2.4933    0.9658 H         1 <0>         0.0873
     35 H6         -0.7520   -2.4429   -0.8104 H         1 <0>         0.1126
     36 H7         -0.7615   -4.7786   -0.0532 H         1 <0>         0.1514
     37 H8          0.7565   -4.4394   -0.9186 H         1 <0>         0.1453
     38 H9          0.4696   -6.6516    0.9536 H         1 <0>         0.1406
     39 H10         1.9749   -6.1383    0.1537 H         1 <0>         0.1444
     40 H11         2.4219   -7.4810    2.2109 H         1 <0>         0.1436
     41 H12         3.0562   -5.8227    2.3478 H         1 <0>         0.0818
     42 H13         0.2713   -4.7916    4.4861 H         1 <0>         0.1428
     43 H14         1.7659   -4.2091    3.7129 H         1 <0>         0.0816
     44 H15        -0.2030   -3.4147    2.4577 H         1 <0>         0.1398
     45 H16        -0.7799   -5.0890    2.2755 H         1 <0>         0.1416
     46 H17         3.8276    1.7710   -2.0298 H         1 <0>         0.1811
     47 H18         7.1582    5.9453    1.8121 H         1 <0>         0.2050
     48 H19         3.0350    3.1435    1.9447 H         1 <0>         0.1814
     49 H20         7.5620    7.1608   -0.7036 H         1 <0>         0.1344
     50 H21         9.4802    7.5179   -2.3924 H         1 <0>         0.1882
     51 H22         8.2559    2.9484   -1.4393 H         1 <0>         0.1803
     52 H23         1.7591   -4.0301    1.2489 H         1 <0>         0.4300
@<TRIPOS>BOND
     1    1    6 ar
     2    1    2 ar
     3    1   30 1
     4    2    3 ar
     5    2   31 1
     6    3    4 ar
     7    3   16 1
     8    4    5 ar
     9    4   32 1
    10    5    6 ar
    11    5    7 1
    12    6   33 1
    13    7    8 1
    14    8    9 1
    15    8   34 1
    16    8   35 1
    17    9   10 1
    18    9   36 1
    19    9   37 1
    20   10   15 1
    21   10   11 1
    22   10   52 1
    23   11   12 1
    24   11   38 1
    25   11   39 1
    26   12   13 1
    27   12   40 1
    28   12   41 1
    29   13   14 1
    30   14   15 1
    31   14   42 1
    32   14   43 1
    33   15   44 1
    34   15   45 1
    35   16   24 2
    36   16   17 1
    37   17   18 2
    38   17   46 1
    39   18   19 1
    40   19   23 1
    41   19   20 2
    42   20   21 1
    43   20   25 1
    44   21   22 2
    45   21   47 1
    46   22   23 1
    47   23   24 1
    48   24   48 1
    49   25   29 2
    50   25   26 1
    51   26   27 2
    52   26   49 1
    53   27   28 1
    54   27   50 1
    55   28   29 1
    56   29   51 1
@<TRIPOS>MOLECULE
CHEMBL504075
   45    47     0     0     0
SMALL
USER_CHARGES

@<TRIPOS>ATOM
      1 C1         -1.7795   -4.4227   -3.4639 C.3       1 <0>        -0.1182
      2 C2         -1.1297   -3.8290   -2.2407 C.ar      1 <0>        -0.0911
      3 C3         -0.5376   -2.5802   -2.3108 C.ar      1 <0>        -0.0902
      4 C4          0.0614   -2.0281   -1.1926 C.ar      1 <0>        -0.1213
      5 C5          0.0720   -2.7204    0.0008 C.ar      1 <0>        -0.0923
      6 C6         -0.5238   -3.9801    0.0785 C.ar      1 <0>        -0.1360
      7 C7         -1.1315   -4.5291   -1.0522 C.ar      1 <0>        -0.0570
      8 C8         -0.5158   -4.7277    1.3537 C.2       1 <0>         0.5623
      9 O1         -1.0355   -5.8247    1.4184 O.2       1 <0>        -0.5138
     10 N1          0.0677   -4.1931    2.4446 N.am      1 <0>        -0.6705
     11 C9         -0.0087   -4.8554    3.6739 C.ar      1 <0>         0.1489
     12 C10        -0.1139   -4.1267    4.8519 C.ar      1 <0>        -0.1388
     13 C11        -0.1891   -4.7837    6.0640 C.ar      1 <0>        -0.0937
     14 C12        -0.1592   -6.1658    6.1062 C.ar      1 <0>        -0.1246
     15 C13        -0.0540   -6.8941    4.9356 C.ar      1 <0>        -0.0774
     16 C14         0.0149   -6.2432    3.7193 C.ar      1 <0>        -0.1058
     17 C15        -0.0208   -8.3999    4.9864 C.3       1 <0>         0.1924
     18 H1          0.4101   -8.7852    4.0623 H         1 <0>         0.0953
     19 C16        -1.4446   -8.9363    5.1477 C.3       1 <0>        -0.1670
     20 N2          0.7956   -8.8323    6.1234 N.pl3     1 <0>        -0.7040
     21 C17         1.4065  -10.0807    6.1055 C.ar      1 <0>         0.3822
     22 C18         1.2484  -10.9197    5.0048 C.ar      1 <0>        -0.0080
     23 N3          1.8300  -12.1039    4.9909 N.ar      1 <0>        -0.3827
     24 C19         2.5626  -12.4951    6.0200 C.ar      1 <0>        -0.0006
     25 C20         2.7224  -11.6651    7.1152 C.ar      1 <0>         0.1809
     26 N4          2.1462  -10.4740    7.1342 N.ar      1 <0>        -0.5029
     27 Cl1         3.6848  -12.1844    8.4635 Cl        1 <0>        -0.0128
     28 H2         -2.8272   -4.1242   -3.5000 H         1 <0>         0.0749
     29 H3         -1.2684   -4.0637   -4.3572 H         1 <0>         0.0705
     30 H4         -1.7128   -5.5098   -3.4193 H         1 <0>         0.0708
     31 H5         -0.5429   -2.0343   -3.2426 H         1 <0>         0.1299
     32 H6          0.5220   -1.0532   -1.2542 H         1 <0>         0.1319
     33 H7          0.5405   -2.2886    0.8728 H         1 <0>         0.1251
     34 H8         -1.5978   -5.5017   -0.9977 H         1 <0>         0.1379
     35 H9          0.5406   -3.3488    2.3771 H         1 <0>         0.4120
     36 H10        -0.1366   -3.0474    4.8197 H         1 <0>         0.1284
     37 H11        -0.2710   -4.2178    6.9802 H         1 <0>         0.1310
     38 H12        -0.2178   -6.6773    7.0556 H         1 <0>         0.1234
     39 H13         0.0918   -6.8127    2.8049 H         1 <0>         0.1435
     40 H14        -2.0521   -8.6146    4.3017 H         1 <0>         0.0773
     41 H15        -1.4206  -10.0254    5.1844 H         1 <0>         0.0654
     42 H16        -1.8756   -8.5510    6.0717 H         1 <0>         0.0657
     43 H17         0.9098   -8.2474    6.8887 H         1 <0>         0.4091
     44 H18         0.6500  -10.6015    4.1639 H         1 <0>         0.1730
     45 H19         3.0371  -13.4652    6.0056 H         1 <0>         0.1767
@<TRIPOS>BOND
     1    1    2 1
     2    1   28 1
     3    1   29 1
     4    1   30 1
     5    2    7 ar
     6    2    3 ar
     7    3    4 ar
     8    3   31 1
     9    4    5 ar
    10    4   32 1
    11    5    6 ar
    12    5   33 1
    13    6    7 ar
    14    6    8 1
    15    7   34 1
    16    8    9 2
    17    8   10 am
    18   10   11 1
    19   10   35 1
    20   11   16 ar
    21   11   12 ar
    22   12   13 ar
    23   12   36 1
    24   13   14 ar
    25   13   37 1
    26   14   15 ar
    27   14   38 1
    28   15   16 ar
    29   15   17 1
    30   16   39 1
    31   17   18 1
    32   17   19 1
    33   17   20 1
    34   19   40 1
    35   19   41 1
    36   19   42 1
    37   20   21 1
    38   20   43 1
    39   21   26 ar
    40   21   22 ar
    41   22   23 ar
    42   22   44 1
    43   23   24 ar
    44   24   25 ar
    45   24   45 1
    46   25   26 ar
    47   25   27 1
@<TRIPOS>MOLECULE
CHEMBL225311
   67    72     0     0     0
SMALL
USER_CHARGES

@<TRIPOS>ATOM
      1 C1         -0.0178    1.4648    0.0101 C.3       1 <0>        -0.0459
      2 N1          0.0021   -0.0041    0.0020 N.4       1 <0>        -0.3885
      3 C2         -1.3761   -0.5122    0.0107 C.3       1 <0>        -0.0023
      4 C3         -1.3560   -2.0421   -0.0167 C.3       1 <0>         0.0247
      5 N2         -0.6244   -2.5407    1.1564 N.3       1 <0>        -0.5343
      6 C4          0.7499   -2.0201    1.1745 C.3       1 <0>         0.0187
      7 C5          0.7125   -0.4904    1.1921 C.3       1 <0>        -0.0023
      8 C6         -0.6316   -4.0091    1.1963 C.3       1 <0>         0.0981
      9 C7         -0.0938   -4.4782    2.5236 C.ar      1 <0>        -0.0828
     10 C8          1.2623   -4.7055    2.6779 C.ar      1 <0>        -0.1166
     11 C9          1.7629   -5.1349    3.8890 C.ar      1 <0>        -0.0925
     12 C10         0.8977   -5.3413    4.9667 C.ar      1 <0>        -0.0237
     13 C11        -0.4668   -5.1086    4.8001 C.ar      1 <0>        -0.0672
     14 C12        -0.9565   -4.6753    3.5879 C.ar      1 <0>        -0.0725
     15 C13        -1.1304   -5.4146    6.1204 C.3       1 <0>        -0.0111
     16 C14        -0.0193   -5.8412    7.0489 C.2       1 <0>        -0.2182
     17 C15         1.1508   -5.7901    6.3537 C.2       1 <0>         0.0934
     18 N3          2.1468   -6.1787    7.2054 N.pl3     1 <0>        -0.4531
     19 H1          3.0904   -6.2401    6.9891 H         1 <0>         0.4424
     20 N4          1.5658   -6.4719    8.4450 N.2       1 <0>        -0.2512
     21 C16         0.2680   -6.2702    8.3544 C.2       1 <0>         0.1610
     22 C17        -0.7212   -6.4632    9.4449 C.2       1 <0>        -0.0532
     23 C18        -0.5590   -7.4782   10.3747 C.2       1 <0>        -0.1024
     24 C19        -1.4951   -7.6194   11.3635 C.2       1 <0>        -0.0560
     25 S1         -2.6378   -6.3001   10.9903 S.3       1 <0>         0.1171
     26 C20        -1.8082   -5.6388    9.5549 C.2       1 <0>        -0.1451
     27 C21        -1.5448   -8.5793   12.4250 C.1       1 <0>        -0.0813
     28 C22        -1.5855   -9.3663   13.2952 C.1       1 <0>        -0.1377
     29 C23        -1.6366  -10.3530   14.3864 C.3       1 <0>         0.2353
     30 N5         -2.8289  -10.1157   15.2039 N.am      1 <0>        -0.7284
     31 C24        -3.0845  -10.9032   16.2674 C.2       1 <0>         0.5638
     32 O1         -2.3257  -11.8104   16.5481 O.2       1 <0>        -0.5290
     33 C25        -4.2877  -10.6638   17.0924 C.ar      1 <0>        -0.1389
     34 C26        -5.1641   -9.6266   16.7693 C.ar      1 <0>        -0.0869
     35 C27        -6.2853   -9.4088   17.5431 C.ar      1 <0>        -0.1276
     36 C28        -6.5417  -10.2156   18.6375 C.ar      1 <0>        -0.0905
     37 C29        -5.6768  -11.2451   18.9635 C.ar      1 <0>        -0.1262
     38 C30        -4.5553  -11.4775   18.1944 C.ar      1 <0>        -0.0572
     39 H2          1.0047    1.8421    0.0024 H         1 <0>         0.1240
     40 H3         -0.5450    1.8259   -0.8730 H         1 <0>         0.1245
     41 H4         -0.5280    1.8163    0.9069 H         1 <0>         0.1232
     42 H5         -1.8832   -0.1716    0.9134 H         1 <0>         0.1380
     43 H6         -1.9060   -0.1400   -0.8661 H         1 <0>         0.1364
     44 H7         -2.3783   -2.4196    0.0047 H         1 <0>         0.1252
     45 H8         -0.8610   -2.3831   -0.9260 H         1 <0>         0.0616
     46 H9          1.2641   -2.3816    2.0650 H         1 <0>         0.1265
     47 H10         1.2796   -2.3607    0.2848 H         1 <0>         0.0612
     48 H11         1.7310   -0.1020    1.1912 H         1 <0>         0.1352
     49 H12         0.1947   -0.1499    2.0888 H         1 <0>         0.1376
     50 H13        -1.6519   -4.3710    1.0694 H         1 <0>         0.1000
     51 H14        -0.0057   -4.3975    0.3929 H         1 <0>         0.0585
     52 H15         1.9320   -4.5463    1.8456 H         1 <0>         0.1246
     53 H16         2.8220   -5.3116    4.0043 H         1 <0>         0.1261
     54 H17        -2.0141   -4.4930    3.4667 H         1 <0>         0.1329
     55 H18        -1.6240   -4.5237    6.5088 H         1 <0>         0.1014
     56 H19        -1.8517   -6.2230    6.0005 H         1 <0>         0.1047
     57 H20         0.2890   -8.1448   10.3200 H         1 <0>         0.1441
     58 H21        -2.0917   -4.8030    8.9324 H         1 <0>         0.1944
     59 H22        -1.6784  -11.3578   13.9659 H         1 <0>         0.1034
     60 H23        -0.7456  -10.2554   15.0065 H         1 <0>         0.1027
     61 H24        -3.4344   -9.3918   14.9798 H         1 <0>         0.4047
     62 H25        -4.9647   -8.9957   15.9157 H         1 <0>         0.1244
     63 H26        -6.9642   -8.6066   17.2941 H         1 <0>         0.1299
     64 H27        -7.4206  -10.0406   19.2402 H         1 <0>         0.1294
     65 H28        -5.8824  -11.8710   19.8193 H         1 <0>         0.1327
     66 H29        -3.8835  -12.2846   18.4470 H         1 <0>         0.1382
     67 H30         0.4748   -0.3293   -0.8280 H         1 <0>         0.4224
@<TRIPOS>BOND
     1    1    2 1
     2    1   39 1
     3    1   40 1
     4    1   41 1
     5    2    7 1
     6    2    3 1
     7    2   67 1
     8    3    4 1
     9    3   42 1
    10    3   43 1
    11    4    5 1
    12    4   44 1
    13    4   45 1
    14    5    6 1
    15    5    8 1
    16    6    7 1
    17    6   46 1
    18    6   47 1
    19    7   48 1
    20    7   49 1
    21    8    9 1
    22    8   50 1
    23    8   51 1
    24    9   14 ar
    25    9   10 ar
    26   10   11 ar
    27   10   52 1
    28   11   12 ar
    29   11   53 1
    30   12   17 1
    31   12   13 ar
    32   13   14 ar
    33   13   15 1
    34   14   54 1
    35   15   16 1
    36   15   55 1
    37   15   56 1
    38   16   21 1
    39   16   17 2
    40   17   18 1
    41   18   19 1
    42   18   20 1
    43   20   21 2
    44   21   22 1
    45   22   26 2
    46   22   23 1
    47   23   24 2
    48   23   57 1
    49   24   25 1
    50   24   27 1
    51   25   26 1
    52   26   58 1
    53   27   28 3
    54   28   29 1
    55   29   30 1
    56   29   59 1
    57   29   60 1
    58   30   31 am
    59   30   61 1
    60   31   32 2
    61   31   33 1
    62   33   38 ar
    63   33   34 ar
    64   34   35 ar
    65   34   62 1
    66   35   36 ar
    67   35   63 1
    68   36   37 ar
    69   36   64 1
    70   37   38 ar
    71   37   65 1
    72   38   66 1
@<TRIPOS>MOLECULE
CHEMBL225311__1
   67    72     0     0     0
SMALL
USER_CHARGES

@<TRIPOS>ATOM
      1 C1         -0.0178    1.4648    0.0101 C.3       1 <0>        -0.0458
      2 N1          0.0021   -0.0041    0.0020 N.4       1 <0>        -0.3884
      3 C2         -1.3761   -0.5122    0.0107 C.3       1 <0>        -0.0023
      4 C3         -1.3560   -2.0421   -0.0167 C.3       1 <0>         0.0248
      5 N2         -0.6244   -2.5407    1.1564 N.3       1 <0>        -0.5344
      6 C4          0.7499   -2.0201    1.1745 C.3       1 <0>         0.0185
      7 C5          0.7125   -0.4904    1.1921 C.3       1 <0>        -0.0024
      8 C6         -0.6316   -4.0091    1.1963 C.3       1 <0>         0.0989
      9 C7         -0.0938   -4.4782    2.5236 C.ar      1 <0>        -0.0836
     10 C8          1.2620   -4.7055    2.6780 C.ar      1 <0>        -0.1191
     11 C9          1.7607   -5.1345    3.8904 C.ar      1 <0>        -0.0832
     12 C10         0.8957   -5.3405    4.9666 C.ar      1 <0>        -0.0045
     13 C11        -0.4666   -5.1093    4.8021 C.ar      1 <0>        -0.0688
     14 C12        -0.9558   -4.6753    3.5874 C.ar      1 <0>        -0.0763
     15 C13        -1.1468   -5.4115    6.1149 C.3       1 <0>        -0.0002
     16 C14        -0.0552   -5.8414    7.0633 C.2       1 <0>        -0.2338
     17 C15         1.1578   -5.7919    6.3569 C.2       1 <0>         0.0861
     18 N3          2.1219   -6.1666    7.1764 N.2       1 <0>        -0.2492
     19 H1          2.0356   -6.7641    9.2097 H         1 <0>         0.4477
     20 N4          1.5557   -6.4642    8.4219 N.pl3     1 <0>        -0.4570
     21 C16         0.2108   -6.2575    8.3325 C.2       1 <0>         0.1732
     22 C17        -0.7787   -6.4499    9.4165 C.2       1 <0>        -0.0767
     23 C18        -0.5289   -5.9750   10.6962 C.2       1 <0>        -0.1212
     24 C19        -1.4722   -6.1750   11.6669 C.2       1 <0>        -0.0481
     25 S1         -2.7485   -7.0505   10.7781 S.3       1 <0>         0.1284
     26 C20        -1.9634   -7.0960    9.1759 C.2       1 <0>        -0.1369
     27 C21        -1.4426   -5.7830   13.0439 C.1       1 <0>        -0.0874
     28 C22        -1.4183   -5.4616   14.1728 C.1       1 <0>        -0.1290
     29 C23        -1.3878   -5.0587   15.5882 C.3       1 <0>         0.2339
     30 N5         -2.6242   -5.4896   16.2454 N.am      1 <0>        -0.7289
     31 C24        -2.8191   -5.2275   17.5530 C.2       1 <0>         0.5647
     32 O1         -1.9689   -4.6336   18.1870 O.2       1 <0>        -0.5284
     33 C25        -4.0669   -5.6623   18.2161 C.ar      1 <0>        -0.1399
     34 C26        -5.0425   -6.3495   17.4923 C.ar      1 <0>        -0.0869
     35 C27        -6.2044   -6.7529   18.1172 C.ar      1 <0>        -0.1272
     36 C28        -6.4038   -6.4772   19.4583 C.ar      1 <0>        -0.0896
     37 C29        -5.4408   -5.7960   20.1815 C.ar      1 <0>        -0.1259
     38 C30        -4.2718   -5.3925   19.5701 C.ar      1 <0>        -0.0571
     39 H2          1.0047    1.8421    0.0024 H         1 <0>         0.1240
     40 H3         -0.5450    1.8259   -0.8730 H         1 <0>         0.1242
     41 H4         -0.5280    1.8163    0.9069 H         1 <0>         0.1230
     42 H5         -1.8832   -0.1716    0.9134 H         1 <0>         0.1376
     43 H6         -1.9060   -0.1400   -0.8661 H         1 <0>         0.1358
     44 H7         -2.3783   -2.4196    0.0047 H         1 <0>         0.1247
     45 H8         -0.8610   -2.3831   -0.9260 H         1 <0>         0.0613
     46 H9          1.2641   -2.3816    2.0650 H         1 <0>         0.1277
     47 H10         1.2796   -2.3607    0.2848 H         1 <0>         0.0613
     48 H11         1.7310   -0.1020    1.1912 H         1 <0>         0.1353
     49 H12         0.1947   -0.1499    2.0888 H         1 <0>         0.1375
     50 H13        -1.6519   -4.3710    1.0694 H         1 <0>         0.0991
     51 H14        -0.0057   -4.3975    0.3929 H         1 <0>         0.0582
     52 H15         1.9324   -4.5469    1.8463 H         1 <0>         0.1243
     53 H16         2.8197   -5.3112    4.0069 H         1 <0>         0.1298
     54 H17        -2.0134   -4.4932    3.4656 H         1 <0>         0.1309
     55 H18        -1.6430   -4.5184    6.4945 H         1 <0>         0.0966
     56 H19        -1.8708   -6.2160    5.9856 H         1 <0>         0.0964
     57 H20         0.3920   -5.4579   10.9215 H         1 <0>         0.1406
     58 H21        -2.3277   -7.5242    8.2538 H         1 <0>         0.1979
     59 H22        -0.5337   -5.5240   16.0802 H         1 <0>         0.1037
     60 H23        -1.2994   -3.9743   15.6555 H         1 <0>         0.1035
     61 H24        -3.3027   -5.9635   15.7393 H         1 <0>         0.4046
     62 H25        -4.8884   -6.5647   16.4452 H         1 <0>         0.1240
     63 H26        -6.9602   -7.2847   17.5583 H         1 <0>         0.1306
     64 H27        -7.3153   -6.7949   19.9428 H         1 <0>         0.1300
     65 H28        -5.6027   -5.5836   21.2280 H         1 <0>         0.1330
     66 H29        -3.5187   -4.8651   20.1369 H         1 <0>         0.1381
     67 H30         0.4748   -0.3293   -0.8280 H         1 <0>         0.4223
@<TRIPOS>BOND
     1    1    2 1
     2    1   39 1
     3    1   40 1
     4    1   41 1
     5    2    7 1
     6    2    3 1
     7    2   67 1
     8    3    4 1
     9    3   42 1
    10    3   43 1
    11    4    5 1
    12    4   44 1
    13    4   45 1
    14    5    6 1
    15    5    8 1
    16    6    7 1
    17    6   46 1
    18    6   47 1
    19    7   48 1
    20    7   49 1
    21    8    9 1
    22    8   50 1
    23    8   51 1
    24    9   14 ar
    25    9   10 ar
    26   10   11 ar
    27   10   52 1
    28   11   12 ar
    29   11   53 1
    30   12   13 ar
    31   12   17 1
    32   13   14 ar
    33   13   15 1
    34   14   54 1
    35   15   55 1
    36   15   56 1
    37   15   16 1
    38   16   17 1
    39   16   21 2
    40   17   18 2
    41   18   20 1
    42   19   20 1
    43   20   21 1
    44   21   22 1
    45   22   26 2
    46   22   23 1
    47   23   24 2
    48   23   57 1
    49   24   25 1
    50   24   27 1
    51   25   26 1
    52   26   58 1
    53   27   28 3
    54   28   29 1
    55   29   30 1
    56   29   59 1
    57   29   60 1
    58   30   31 am
    59   30   61 1
    60   31   32 2
    61   31   33 1
    62   33   38 ar
    63   33   34 ar
    64   34   35 ar
    65   34   62 1
    66   35   36 ar
    67   35   63 1
    68   36   37 ar
    69   36   64 1
    70   37   38 ar
    71   37   65 1
    72   38   66 1
@<TRIPOS>MOLECULE
CHEMBL219293
   69    75     0     0     0
SMALL
USER_CHARGES

@<TRIPOS>ATOM
      1 C1          1.1193    1.7751   -1.9767 C.3       1 <0>        -0.1519
      2 C2          1.2211    0.2619   -2.1785 C.3       1 <0>        -0.1483
      3 C3          0.6498   -0.4555   -0.9538 C.3       1 <0>         0.1005
      4 N1          0.7473   -1.9045   -1.1470 N.pl3     1 <0>        -0.4950
      5 C4          1.7624   -2.6947   -0.6663 C.ar      1 <0>         0.1319
      6 C5          2.8957   -2.3716    0.0787 C.ar      1 <0>        -0.1196
      7 C6          3.7463   -3.4095    0.4192 C.ar      1 <0>        -0.1069
      8 C7          3.4974   -4.7228    0.0423 C.ar      1 <0>         0.1254
      9 C8          2.3737   -5.0672   -0.7023 C.ar      1 <0>        -0.0524
     10 C9          1.5094   -4.0302   -1.0498 C.ar      1 <0>        -0.0826
     11 C10         0.2560   -4.0188   -1.8089 C.ar      1 <0>        -0.0980
     12 C11        -0.1733   -2.6751   -1.8352 C.ar      1 <0>         0.1894
     13 C12        -1.3635   -2.3377   -2.4758 C.ar      1 <0>        -0.1217
     14 C13        -2.0963   -3.3301   -3.1187 C.ar      1 <0>         0.1283
     15 C14        -1.6862   -4.6740   -3.0797 C.ar      1 <0>        -0.1988
     16 C15        -0.4986   -5.0038   -2.4267 C.ar      1 <0>        -0.0106
     17 C16        -0.3338   -6.4965   -2.5676 C.3       1 <0>         0.1381
     18 N2         -1.4886   -6.9633   -3.3434 N.am      1 <0>        -0.7201
     19 C17        -2.2704   -5.9079   -3.6272 C.2       1 <0>         0.5769
     20 O1         -3.3088   -5.9634   -4.2580 O.2       1 <0>        -0.5357
     21 C18        -3.2921   -2.9074   -3.8806 C.2       1 <0>        -0.2406
     22 C19        -4.3151   -3.6080   -4.4127 C.2       1 <0>         0.1040
     23 N3         -5.1557   -2.7194   -4.9895 N.pl3     1 <0>        -0.3873
     24 N4         -4.6273   -1.4305   -4.8106 N.2       1 <0>        -0.2902
     25 C20        -3.5147   -1.5299   -4.1600 C.2       1 <0>         0.0925
     26 C21        -2.5277   -0.4760   -3.7280 C.3       1 <0>        -0.0318
     27 C22        -1.8479   -0.9146   -2.4334 C.3       1 <0>        -0.0852
     28 C23        -6.4044   -3.0456   -5.6827 C.3       1 <0>         0.1035
     29 N5          4.4005   -5.7257    0.4208 N.am      1 <0>        -0.6823
     30 C24         3.9477   -6.9534    0.7437 C.2       1 <0>         0.7078
     31 O2          2.7668   -7.2168    0.6238 O.2       1 <0>        -0.5576
     32 N6          4.8040   -7.8890    1.1996 N.am      1 <0>        -0.5868
     33 C25         6.2414   -7.6090    1.2400 C.3       1 <0>         0.0756
     34 C26         4.3200   -9.1280    1.6342 C.ar      1 <0>         0.1530
     35 C27         3.7475  -10.0088    0.7261 C.ar      1 <0>        -0.1014
     36 C28         3.2712  -11.2311    1.1582 C.ar      1 <0>        -0.1096
     37 C29         3.3636  -11.5780    2.4936 C.ar      1 <0>        -0.1177
     38 C30         3.9332  -10.7031    3.4004 C.ar      1 <0>        -0.1101
     39 C31         4.4165   -9.4817    2.9737 C.ar      1 <0>        -0.1196
     40 H1          0.0738    2.0548   -1.8466 H         1 <0>         0.0597
     41 H2          1.6852    2.0623   -1.0906 H         1 <0>         0.0584
     42 H3          1.5262    2.2862   -2.8492 H         1 <0>         0.0634
     43 H4          0.6551   -0.0254   -3.0647 H         1 <0>         0.0747
     44 H5          2.2665   -0.0178   -2.3087 H         1 <0>         0.0720
     45 H6          1.2158   -0.1683   -0.0677 H         1 <0>         0.0924
     46 H7         -0.3956   -0.1758   -0.8237 H         1 <0>         0.0987
     47 H8          3.1016   -1.3543    0.3772 H         1 <0>         0.1361
     48 H9          4.6324   -3.1906    0.9966 H         1 <0>         0.1280
     49 H10         2.1805   -6.0882   -0.9968 H         1 <0>         0.1494
     50 H11         0.5908   -6.7231   -3.0984 H         1 <0>         0.1000
     51 H12        -0.3275   -6.9674   -1.5846 H         1 <0>         0.1043
     52 H13        -1.6647   -7.8825   -3.5982 H         1 <0>         0.4264
     53 H14        -4.4397   -4.6804   -4.3833 H         1 <0>         0.2198
     54 H15        -1.7758   -0.3419   -4.5057 H         1 <0>         0.0873
     55 H16        -3.0510    0.4657   -3.5625 H         1 <0>         0.0893
     56 H17        -2.5567   -0.8097   -1.6120 H         1 <0>         0.0784
     57 H18        -0.9969   -0.2600   -2.2449 H         1 <0>         0.0940
     58 H19        -7.2285   -3.0384   -4.9693 H         1 <0>         0.0743
     59 H20        -6.5915   -2.3062   -6.4614 H         1 <0>         0.0884
     60 H21        -6.3223   -4.0348   -6.1331 H         1 <0>         0.0898
     61 H22         5.3513   -5.5361    0.4503 H         1 <0>         0.4062
     62 H23         6.4984   -7.1666    2.2025 H         1 <0>         0.0632
     63 H24         6.7964   -8.5377    1.1072 H         1 <0>         0.0821
     64 H25         6.4989   -6.9144    0.4404 H         1 <0>         0.0730
     65 H26         3.6744   -9.7382   -0.3169 H         1 <0>         0.1228
     66 H27         2.8258  -11.9166    0.4524 H         1 <0>         0.1269
     67 H28         2.9897  -12.5340    2.8291 H         1 <0>         0.1255
     68 H29         4.0036  -10.9767    4.4428 H         1 <0>         0.1272
     69 H30         4.8650   -8.8005    3.6817 H         1 <0>         0.1234
@<TRIPOS>BOND
     1    1    2 1
     2    1   40 1
     3    1   41 1
     4    1   42 1
     5    2    3 1
     6    2   43 1
     7    2   44 1
     8    3    4 1
     9    3   45 1
    10    3   46 1
    11    4   12 1
    12    4    5 1
    13    5   10 ar
    14    5    6 ar
    15    6    7 ar
    16    6   47 1
    17    7    8 ar
    18    7   48 1
    19    8    9 ar
    20    8   29 1
    21    9   10 ar
    22    9   49 1
    23   10   11 1
    24   11   16 ar
    25   11   12 ar
    26   12   13 ar
    27   13   27 1
    28   13   14 ar
    29   14   15 ar
    30   14   21 1
    31   15   19 1
    32   15   16 ar
    33   16   17 1
    34   17   18 1
    35   17   50 1
    36   17   51 1
    37   18   19 am
    38   18   52 1
    39   19   20 2
    40   21   25 1
    41   21   22 2
    42   22   23 1
    43   22   53 1
    44   23   24 1
    45   23   28 1
    46   24   25 2
    47   25   26 1
    48   26   27 1
    49   26   54 1
    50   26   55 1
    51   27   56 1
    52   27   57 1
    53   28   58 1
    54   28   59 1
    55   28   60 1
    56   29   30 am
    57   29   61 1
    58   30   31 2
    59   30   32 am
    60   32   33 1
    61   32   34 1
    62   33   62 1
    63   33   63 1
    64   33   64 1
    65   34   39 ar
    66   34   35 ar
    67   35   36 ar
    68   35   65 1
    69   36   37 ar
    70   36   66 1
    71   37   38 ar
    72   37   67 1
    73   38   39 ar
    74   38   68 1
    75   39   69 1
@<TRIPOS>MOLECULE
CHEMBL202389
   62    65     0     0     0
SMALL
USER_CHARGES

@<TRIPOS>ATOM
      1 C1          5.2585    2.2969   -2.4154 C.3       1 <0>        -0.1667
      2 C2          5.5978    0.8120   -2.5603 C.3       1 <0>         0.1181
      3 N1          4.3845    0.0648   -2.9003 N.pl3     1 <0>        -0.7427
      4 C3          4.4448   -1.3184   -3.0847 C.ar      1 <0>         0.2535
      5 C4          5.6545   -1.9875   -2.9403 C.ar      1 <0>        -0.2186
      6 C5          5.7143   -3.3554   -3.1227 C.ar      1 <0>        -0.0305
      7 C6          4.5726   -4.0624   -3.4490 C.ar      1 <0>        -0.2541
      8 C7          3.3613   -3.3997   -3.5947 C.ar      1 <0>         0.1618
      9 C8          3.2961   -2.0272   -3.4068 C.ar      1 <0>        -0.2131
     10 O1          2.2400   -4.0958   -3.9160 O.3       1 <0>        -0.2364
     11 C9          2.3685   -5.4129   -4.1953 C.2       1 <0>         0.0766
     12 C10         1.8157   -6.3270   -3.3589 C.2       1 <0>        -0.1571
     13 C11         1.9666   -7.7639   -3.6333 C.2       1 <0>         0.4366
     14 O2          1.6571   -8.6024   -2.8076 O.2       1 <0>        -0.3774
     15 C12         2.5133   -8.1505   -4.9635 C.2       1 <0>         0.1657
     16 C13         3.6072   -7.2515   -5.5171 C.3       1 <0>        -0.1694
     17 C14         3.1020   -5.8269   -5.4068 C.2       1 <0>         0.3742
     18 O3          3.3005   -5.0369   -6.2993 O.2       1 <0>        -0.3856
     19 N2          2.0814   -9.1947   -5.6122 N.2       1 <0>        -0.3822
     20 C15         2.6828   -9.5710   -6.7736 C.ar      1 <0>         0.3631
     21 C16         3.8298  -10.4061   -6.7643 C.ar      1 <0>        -0.1515
     22 C17         4.3936  -10.8792   -5.5757 C.ar      1 <0>        -0.1603
     23 C18         5.4993  -11.6816   -5.6265 C.ar      1 <0>         0.1297
     24 C19         6.0741  -12.0347   -6.8580 C.ar      1 <0>         0.1715
     25 C20         5.5431  -11.5856   -8.0335 C.ar      1 <0>        -0.1840
     26 C21         4.4084  -10.7618   -8.0112 C.ar      1 <0>         0.1925
     27 N3          3.8498  -10.2967   -9.1350 N.ar      1 <0>        -0.5084
     28 C22         2.7874   -9.5263   -9.0840 C.ar      1 <0>         0.3184
     29 N4          2.2086   -9.1708   -7.9513 N.ar      1 <0>        -0.5312
     30 O4          7.1729  -12.8329   -6.8804 O.3       1 <0>        -0.2845
     31 C23         7.7127  -13.1578   -8.1630 C.3       1 <0>         0.0530
     32 C24         8.9374  -14.0580   -7.9879 C.3       1 <0>         0.0625
     33 O5          8.5339  -15.3059   -7.4204 O.3       1 <0>        -0.3850
     34 C25         9.6085  -16.2252   -7.2143 C.3       1 <0>         0.0307
     35 O6          6.0485  -12.1423   -4.4722 O.3       1 <0>        -0.2944
     36 C26         5.4188  -11.7480   -3.2515 C.3       1 <0>         0.0204
     37 H1          4.8532    2.6705   -3.3557 H         1 <0>         0.0625
     38 H2          4.5192    2.4251   -1.6247 H         1 <0>         0.0626
     39 H3          6.1612    2.8529   -2.1624 H         1 <0>         0.0752
     40 H4          6.3371    0.6838   -3.3510 H         1 <0>         0.0623
     41 H5          6.0031    0.4385   -1.6199 H         1 <0>         0.0626
     42 H6          3.5392    0.5306   -2.9974 H         1 <0>         0.4023
     43 H7          6.5483   -1.4375   -2.6856 H         1 <0>         0.1268
     44 H8          6.6553   -3.8734   -3.0103 H         1 <0>         0.1294
     45 H9          4.6228   -5.1319   -3.5913 H         1 <0>         0.1167
     46 H10         2.3540   -1.5103   -3.5153 H         1 <0>         0.1339
     47 H11         1.2643   -5.9990   -2.4901 H         1 <0>         0.1789
     48 H12         4.5196   -7.3729   -4.9333 H         1 <0>         0.1488
     49 H13         3.7974   -7.4971   -6.5619 H         1 <0>         0.1208
     50 H14         3.9589  -10.6124   -4.6238 H         1 <0>         0.1479
     51 H15         5.9944  -11.8633   -8.9746 H         1 <0>         0.1589
     52 H16         2.3647   -9.1702  -10.0119 H         1 <0>         0.2051
     53 H17         6.9592  -13.6800   -8.7526 H         1 <0>         0.0796
     54 H18         8.0054  -12.2420   -8.6766 H         1 <0>         0.0861
     55 H19         9.4013  -14.2334   -8.9585 H         1 <0>         0.0762
     56 H20         9.6536  -13.5722   -7.3253 H         1 <0>         0.0642
     57 H21         9.2201  -17.1469   -6.7812 H         1 <0>         0.0888
     58 H22        10.0863  -16.4454   -8.1689 H         1 <0>         0.0427
     59 H23        10.3387  -15.7843   -6.5357 H         1 <0>         0.0439
     60 H24         5.9556  -12.1833   -2.4086 H         1 <0>         0.1095
     61 H25         5.4335  -10.6612   -3.1695 H         1 <0>         0.0575
     62 H26         4.3868  -12.0989   -3.2453 H         1 <0>         0.0618
@<TRIPOS>BOND
     1    1    2 1
     2    1   37 1
     3    1   38 1
     4    1   39 1
     5    2    3 1
     6    2   40 1
     7    2   41 1
     8    3    4 1
     9    3   42 1
    10    4    9 ar
    11    4    5 ar
    12    5    6 ar
    13    5   43 1
    14    6    7 ar
    15    6   44 1
    16    7    8 ar
    17    7   45 1
    18    8    9 ar
    19    8   10 1
    20    9   46 1
    21   10   11 1
    22   11   17 1
    23   11   12 2
    24   12   13 1
    25   12   47 1
    26   13   14 2
    27   13   15 1
    28   15   19 2
    29   15   16 1
    30   16   17 1
    31   16   48 1
    32   16   49 1
    33   17   18 2
    34   19   20 1
    35   20   29 ar
    36   20   21 ar
    37   21   26 ar
    38   21   22 ar
    39   22   23 ar
    40   22   50 1
    41   23   24 ar
    42   23   35 1
    43   24   25 ar
    44   24   30 1
    45   25   26 ar
    46   25   51 1
    47   26   27 ar
    48   27   28 ar
    49   28   29 ar
    50   28   52 1
    51   30   31 1
    52   31   32 1
    53   31   53 1
    54   31   54 1
    55   32   33 1
    56   32   55 1
    57   32   56 1
    58   33   34 1
    59   34   57 1
    60   34   58 1
    61   34   59 1
    62   35   36 1
    63   36   60 1
    64   36   61 1
    65   36   62 1
@<TRIPOS>MOLECULE
CHEMBL202389__1
   62    65     0     0     0
SMALL
USER_CHARGES

@<TRIPOS>ATOM
      1 C1          5.3173    2.2640   -2.3569 C.3       1 <0>        -0.1666
      2 C2          5.6496    0.7785   -2.5110 C.3       1 <0>         0.1180
      3 N1          4.4322    0.0386   -2.8526 N.pl3     1 <0>        -0.7428
      4 C3          4.4859   -1.3437   -3.0450 C.ar      1 <0>         0.2534
      5 C4          5.6928   -2.0191   -2.9071 C.ar      1 <0>        -0.2185
      6 C5          5.7460   -3.3862   -3.0974 C.ar      1 <0>        -0.0299
      7 C6          4.6005   -4.0862   -3.4252 C.ar      1 <0>        -0.2538
      8 C7          3.3919   -3.4172   -3.5644 C.ar      1 <0>         0.1614
      9 C8          3.3332   -2.0455   -3.3685 C.ar      1 <0>        -0.2138
     10 O1          2.2667   -4.1064   -3.8870 O.3       1 <0>        -0.2380
     11 C9          2.3887   -5.4224   -4.1742 C.2       1 <0>         0.0725
     12 C10         1.8336   -6.3389   -3.3418 C.2       1 <0>        -0.1613
     13 C11         1.9774   -7.7748   -3.6249 C.2       1 <0>         0.3770
     14 O2          1.6660   -8.6167   -2.8033 O.2       1 <0>        -0.3792
     15 C12         2.5195   -8.1562   -4.9584 C.2       1 <0>         0.1674
     16 C13         3.6161   -7.2589   -5.5094 C.3       1 <0>        -0.1154
     17 C14         3.1176   -5.8328   -5.3898 C.2       1 <0>         0.3686
     18 O3          3.3176   -5.0385   -6.2781 O.2       1 <0>        -0.3844
     19 N2          2.0814   -9.1947   -5.6122 N.2       1 <0>        -0.3824
     20 C15         1.0245   -9.9049   -5.1320 C.ar      1 <0>         0.3606
     21 C16        -0.3087   -9.5142   -5.4198 C.ar      1 <0>        -0.1527
     22 C17        -0.6009   -8.3930   -6.2022 C.ar      1 <0>        -0.1640
     23 C18        -1.9047   -8.0634   -6.4477 C.ar      1 <0>         0.1300
     24 C19        -2.9520   -8.8375   -5.9228 C.ar      1 <0>         0.1691
     25 C20        -2.6939   -9.9373   -5.1552 C.ar      1 <0>        -0.1823
     26 C21        -1.3655  -10.2994   -4.8881 C.ar      1 <0>         0.1930
     27 N3         -1.0600  -11.3682   -4.1426 N.ar      1 <0>        -0.5096
     28 C22         0.1932  -11.6833   -3.9083 C.ar      1 <0>         0.3211
     29 N4          1.2118  -10.9896   -4.3833 N.ar      1 <0>        -0.5155
     30 O4         -4.2388   -8.4877   -6.1815 O.3       1 <0>        -0.2849
     31 C23        -5.2610   -9.3137   -5.6203 C.3       1 <0>         0.0530
     32 C24        -6.6338   -8.7667   -6.0169 C.3       1 <0>         0.0627
     33 O5         -6.7975   -8.8719   -7.4326 O.3       1 <0>        -0.3849
     34 C25        -8.0536   -8.3858   -7.9101 C.3       1 <0>         0.0307
     35 O6         -2.1904   -6.9739   -7.2079 O.3       1 <0>        -0.2936
     36 C26        -1.0821   -6.2265   -7.7129 C.3       1 <0>         0.0211
     37 H1          4.9116    2.6447   -3.2942 H         1 <0>         0.0625
     38 H2          4.5804    2.3910   -1.5638 H         1 <0>         0.0623
     39 H3          6.2231    2.8145   -2.1028 H         1 <0>         0.0753
     40 H4          6.3865    0.6514   -3.3041 H         1 <0>         0.0626
     41 H5          6.0553    0.3977   -1.5737 H         1 <0>         0.0625
     42 H6          3.5888    0.5087   -2.9451 H         1 <0>         0.4021
     43 H7          6.5897   -1.4746   -2.6513 H         1 <0>         0.1269
     44 H8          6.6849   -3.9091   -2.9901 H         1 <0>         0.1303
     45 H9          4.6455   -5.1550   -3.5737 H         1 <0>         0.1178
     46 H10         2.3932   -1.5238   -3.4719 H         1 <0>         0.1331
     47 H11         1.2856   -6.0134   -2.4700 H         1 <0>         0.1709
     48 H12         4.5293   -7.3878   -4.9283 H         1 <0>         0.1518
     49 H13         3.8029   -7.4994   -6.5560 H         1 <0>         0.1434
     50 H14         0.1980   -7.7912   -6.6096 H         1 <0>         0.1433
     51 H15        -3.5077  -10.5246   -4.7564 H         1 <0>         0.1587
     52 H16         0.4006  -12.5529   -3.3023 H         1 <0>         0.2036
     53 H17        -5.1529  -10.3312   -5.9959 H         1 <0>         0.0795
     54 H18        -5.1708   -9.3159   -4.5340 H         1 <0>         0.0858
     55 H19        -7.4126   -9.3428   -5.5173 H         1 <0>         0.0761
     56 H20        -6.7080   -7.7208   -5.7193 H         1 <0>         0.0641
     57 H21        -8.0997   -8.5006   -8.9931 H         1 <0>         0.0886
     58 H22        -8.8619   -8.9539   -7.4498 H         1 <0>         0.0427
     59 H23        -8.1572   -7.3319   -7.6518 H         1 <0>         0.0437
     60 H24        -1.4489   -5.3856   -8.3015 H         1 <0>         0.1102
     61 H25        -0.4853   -5.8542   -6.8802 H         1 <0>         0.0553
     62 H26        -0.4667   -6.8695   -8.3421 H         1 <0>         0.0607
@<TRIPOS>BOND
     1    1    2 1
     2    1   37 1
     3    1   38 1
     4    1   39 1
     5    2    3 1
     6    2   40 1
     7    2   41 1
     8    3    4 1
     9    3   42 1
    10    4    9 ar
    11    4    5 ar
    12    5    6 ar
    13    5   43 1
    14    6    7 ar
    15    6   44 1
    16    7    8 ar
    17    7   45 1
    18    8    9 ar
    19    8   10 1
    20    9   46 1
    21   10   11 1
    22   11   17 1
    23   11   12 2
    24   12   13 1
    25   12   47 1
    26   13   14 2
    27   13   15 1
    28   15   19 2
    29   15   16 1
    30   16   17 1
    31   16   48 1
    32   16   49 1
    33   17   18 2
    34   19   20 1
    35   20   29 ar
    36   20   21 ar
    37   21   26 ar
    38   21   22 ar
    39   22   23 ar
    40   22   50 1
    41   23   24 ar
    42   23   35 1
    43   24   25 ar
    44   24   30 1
    45   25   26 ar
    46   25   51 1
    47   26   27 ar
    48   27   28 ar
    49   28   29 ar
    50   28   52 1
    51   30   31 1
    52   31   32 1
    53   31   53 1
    54   31   54 1
    55   32   33 1
    56   32   55 1
    57   32   56 1
    58   33   34 1
    59   34   57 1
    60   34   58 1
    61   34   59 1
    62   35   36 1
    63   36   60 1
    64   36   61 1
    65   36   62 1
@<TRIPOS>MOLECULE
CHEMBL179517
   65    68     0     0     0
SMALL
USER_CHARGES

@<TRIPOS>ATOM
      1 C1         -2.2895    1.0113   -1.3874 C.3       1 <0>        -0.1108
      2 C2         -1.8696   -0.4177   -1.1580 C.ar      1 <0>        -0.1147
      3 C3         -1.6446   -1.2525   -2.2364 C.ar      1 <0>        -0.0892
      4 C4         -1.2597   -2.5628   -2.0303 C.ar      1 <0>        -0.1149
      5 C5         -1.0971   -3.0448   -0.7370 C.ar      1 <0>         0.1403
      6 C6         -1.3221   -2.2077    0.3469 C.ar      1 <0>        -0.1628
      7 C7         -1.7037   -0.8919    0.1356 C.ar      1 <0>         0.1217
      8 O1         -1.9202   -0.0683    1.1947 O.3       1 <0>        -0.4920
      9 N1         -0.7080   -4.3709   -0.5282 N.pl3     1 <0>        -0.6172
     10 C8         -1.0936   -5.3517   -1.4193 C.2       1 <0>         0.5342
     11 C9         -0.8487   -6.7179   -1.1324 C.2       1 <0>        -0.1110
     12 C10        -0.2590   -7.3696   -0.0732 C.2       1 <0>        -0.0081
     13 C11        -0.3090   -8.7483   -0.3644 C.2       1 <0>        -0.2161
     14 C12        -0.9300   -8.8853   -1.5954 C.2       1 <0>         0.1003
     15 N2         -1.2524   -7.6675   -2.0535 N.pl3     1 <0>        -0.2244
     16 N3         -1.8854   -7.2287   -3.2261 N.2       1 <0>        -0.3627
     17 C13        -2.0804   -5.9550   -3.4270 C.2       1 <0>         0.3457
     18 N4         -1.7008   -5.0286   -2.5484 N.2       1 <0>        -0.6115
     19 C14         0.2044   -9.8407    0.4829 C.2       1 <0>         0.5976
     20 O2          0.6587   -9.5942    1.5836 O.2       1 <0>        -0.5104
     21 N5          0.1700  -11.1122    0.0374 N.am      1 <0>        -0.7359
     22 C15         0.6799  -12.1974    0.8791 C.3       1 <0>         0.1265
     23 C16         0.5250  -13.5297    0.1430 C.3       1 <0>        -0.1629
     24 C17         1.0576  -14.6630    1.0221 C.3       1 <0>        -0.0014
     25 N6          0.9089  -15.9422    0.3153 N.4       1 <0>        -0.3944
     26 C18         1.8309  -15.9948   -0.8480 C.3       1 <0>        -0.0082
     27 C19         1.9758  -17.5137   -1.1171 C.3       1 <0>        -0.1461
     28 C20         1.9876  -18.1174    0.3060 C.3       1 <0>        -0.1458
     29 C21         1.3074  -17.0612    1.1966 C.3       1 <0>        -0.0084
     30 C22         0.3273   -6.7324    1.1602 C.3       1 <0>        -0.0237
     31 C23        -0.5091   -7.1203    2.3813 C.3       1 <0>        -0.1503
     32 C24         1.7651   -7.2191    1.3514 C.3       1 <0>        -0.1504
     33 H1         -1.4040    1.6424   -1.4642 H         1 <0>         0.0741
     34 H2         -2.8639    1.0773   -2.3114 H         1 <0>         0.0680
     35 H3         -2.9042    1.3479   -0.5526 H         1 <0>         0.0682
     36 H4         -1.7705   -0.8796   -3.2421 H         1 <0>         0.1335
     37 H5         -1.0852   -3.2132   -2.8746 H         1 <0>         0.1592
     38 H6         -1.1965   -2.5796    1.3530 H         1 <0>         0.1316
     39 H7         -2.8310   -0.0765    1.5195 H         1 <0>         0.3916
     40 H8         -0.1669   -4.6019    0.2431 H         1 <0>         0.4233
     41 H9         -1.1225   -9.8193   -2.1022 H         1 <0>         0.1828
     42 H10        -2.5697   -5.6403   -4.3369 H         1 <0>         0.2249
     43 H11        -0.1925  -11.3089   -0.8406 H         1 <0>         0.4010
     44 H12         1.7335  -12.0234    1.0976 H         1 <0>         0.0796
     45 H13         0.1161  -12.2297    1.8114 H         1 <0>         0.0799
     46 H14        -0.5286  -13.7038   -0.0754 H         1 <0>         0.0944
     47 H15         1.0889  -13.4974   -0.7893 H         1 <0>         0.0939
     48 H16         2.1112  -14.4890    1.2406 H         1 <0>         0.1339
     49 H17         0.4938  -14.6954    1.9544 H         1 <0>         0.1346
     50 H18         1.3922  -15.4916   -1.7096 H         1 <0>         0.1348
     51 H19         2.7956  -15.5553   -0.5945 H         1 <0>         0.1347
     52 H20         1.1253  -17.8872   -1.6875 H         1 <0>         0.0980
     53 H21         2.9116  -17.7263   -1.6341 H         1 <0>         0.1168
     54 H22         1.4229  -19.0496    0.3263 H         1 <0>         0.1053
     55 H23         3.0123  -18.2876    0.6363 H         1 <0>         0.1041
     56 H24         2.0076  -16.7068    1.9531 H         1 <0>         0.1317
     57 H25         0.4263  -17.4898    1.6741 H         1 <0>         0.1328
     58 H26         0.3228   -5.6484    1.0462 H         1 <0>         0.0585
     59 H27        -0.3935   -8.1863    2.5771 H         1 <0>         0.0863
     60 H28        -0.1710   -6.5529    3.2483 H         1 <0>         0.0615
     61 H29        -1.5586   -6.8981    2.1883 H         1 <0>         0.0479
     62 H30         2.4363   -6.6203    0.7358 H         1 <0>         0.0456
     63 H31         2.0465   -7.1183    2.3996 H         1 <0>         0.0634
     64 H32         1.8369   -8.2656    1.0550 H         1 <0>         0.0845
     65 H33        -0.0452  -16.0626    0.0100 H         1 <0>         0.4270
@<TRIPOS>BOND
     1    1    2 1
     2    1   33 1
     3    1   34 1
     4    1   35 1
     5    2    7 ar
     6    2    3 ar
     7    3    4 ar
     8    3   36 1
     9    4    5 ar
    10    4   37 1
    11    5    6 ar
    12    5    9 1
    13    6    7 ar
    14    6   38 1
    15    7    8 1
    16    8   39 1
    17    9   10 1
    18    9   40 1
    19   10   18 2
    20   10   11 1
    21   11   15 1
    22   11   12 2
    23   12   13 1
    24   12   30 1
    25   13   14 2
    26   13   19 1
    27   14   15 1
    28   14   41 1
    29   15   16 1
    30   16   17 2
    31   17   18 1
    32   17   42 1
    33   19   20 2
    34   19   21 am
    35   21   22 1
    36   21   43 1
    37   22   23 1
    38   22   44 1
    39   22   45 1
    40   23   24 1
    41   23   46 1
    42   23   47 1
    43   24   25 1
    44   24   48 1
    45   24   49 1
    46   25   29 1
    47   25   26 1
    48   25   65 1
    49   26   27 1
    50   26   50 1
    51   26   51 1
    52   27   28 1
    53   27   52 1
    54   27   53 1
    55   28   29 1
    56   28   54 1
    57   28   55 1
    58   29   56 1
    59   29   57 1
    60   30   31 1
    61   30   32 1
    62   30   58 1
    63   31   59 1
    64   31   60 1
    65   31   61 1
    66   32   62 1
    67   32   63 1
    68   32   64 1
@<TRIPOS>MOLECULE
CHEMBL377734
   45    48     0     0     0
SMALL
USER_CHARGES

@<TRIPOS>ATOM
      1 C1          2.3693    1.4369   -0.0146 C.ar      1 <0>        -0.0436
      2 C2          1.1264    2.0566   -0.0052 C.ar      1 <0>        -0.2059
      3 C3         -0.0157    1.2812   -0.0024 C.ar      1 <0>         0.1373
      4 N1          0.0607   -0.0362   -0.0081 N.ar      1 <0>        -0.4761
      5 C4          1.2264   -0.6640   -0.0171 C.ar      1 <0>         0.3669
      6 C5          2.4176    0.0547   -0.0208 C.ar      1 <0>        -0.2085
      7 N2          1.2603   -2.0549   -0.0224 N.pl3     1 <0>        -0.6024
      8 C6          0.0815   -2.7781    0.0897 C.2       1 <0>         0.3034
      9 N3         -1.1548   -2.3278    0.1158 N.2       1 <0>        -0.5240
     10 C7         -2.1793   -3.1541    0.2275 C.2       1 <0>         0.1063
     11 C8         -1.8976   -4.4767    0.3130 C.2       1 <0>        -0.2675
     12 S1         -0.1150   -4.4447    0.2178 S.3       1 <0>         0.1096
     13 C9         -2.8319   -5.6516    0.4469 C.3       1 <0>         0.2255
     14 N4         -3.2018   -6.1356   -0.8854 N.pl3     1 <0>        -0.7387
     15 C10        -4.0676   -7.2279   -1.0180 C.ar      1 <0>         0.1767
     16 C11        -4.5781   -7.8462    0.1097 C.ar      1 <0>        -0.1182
     17 C12        -5.4421   -8.9356   -0.0262 C.ar      1 <0>        -0.1329
     18 C13        -5.7859   -9.3946   -1.3020 C.ar      1 <0>         0.1356
     19 C14        -5.2705   -8.7699   -2.4221 C.ar      1 <0>        -0.1501
     20 C15        -4.4190   -7.6877   -2.2850 C.ar      1 <0>         0.0840
     21 F1         -3.9230   -7.0779   -3.3838 F         1 <0>        -0.1271
     22 F2         -6.6207  -10.4479   -1.4394 F         1 <0>        -0.1102
     23 C16        -5.9899   -9.6001    1.1722 C.2       1 <0>         0.5642
     24 O1         -6.7417  -10.5481    1.0516 O.2       1 <0>        -0.5142
     25 N5         -5.6568   -9.1563    2.4005 N.am      1 <0>        -0.6970
     26 C17        -6.2005   -9.8160    3.5901 C.3       1 <0>         0.0780
     27 C18        -6.7046   -8.9224    4.7252 C.3       1 <0>        -0.1914
     28 C19        -5.3993   -9.7035    4.8887 C.3       1 <0>        -0.1875
     29 H1          3.2775    2.0212   -0.0213 H         1 <0>         0.1397
     30 H2          1.0542    3.1341    0.0002 H         1 <0>         0.1372
     31 H3         -0.9842    1.7589    0.0049 H         1 <0>         0.1598
     32 H4          3.3672   -0.4597   -0.0285 H         1 <0>         0.1360
     33 H5          2.1081   -2.5191   -0.1044 H         1 <0>         0.4362
     34 H6         -3.1964   -2.7915    0.2499 H         1 <0>         0.1741
     35 H7         -2.3351   -6.4498    0.9985 H         1 <0>         0.0776
     36 H8         -3.7291   -5.3431    0.9834 H         1 <0>         0.0890
     37 H9         -2.8469   -5.6994   -1.6758 H         1 <0>         0.4093
     38 H10        -4.3090   -7.4879    1.0923 H         1 <0>         0.1430
     39 H11        -5.5363   -9.1247   -3.4069 H         1 <0>         0.1579
     40 H12        -5.0570   -8.4000    2.4967 H         1 <0>         0.4001
     41 H13        -6.7352  -10.7482    3.4078 H         1 <0>         0.1410
     42 H14        -6.6317   -7.8437    4.5867 H         1 <0>         0.0980
     43 H15        -7.5712   -9.2666    5.2897 H         1 <0>         0.1047
     44 H16        -5.4070  -10.5616    5.5608 H         1 <0>         0.1059
     45 H17        -4.4675   -9.1387    4.8578 H         1 <0>         0.0980
@<TRIPOS>BOND
     1    1    6 ar
     2    1    2 ar
     3    1   29 1
     4    2    3 ar
     5    2   30 1
     6    3    4 ar
     7    3   31 1
     8    4    5 ar
     9    5    6 ar
    10    5    7 1
    11    6   32 1
    12    7    8 1
    13    7   33 1
    14    8   12 1
    15    8    9 2
    16    9   10 1
    17   10   11 2
    18   10   34 1
    19   11   12 1
    20   11   13 1
    21   13   14 1
    22   13   35 1
    23   13   36 1
    24   14   15 1
    25   14   37 1
    26   15   20 ar
    27   15   16 ar
    28   16   17 ar
    29   16   38 1
    30   17   18 ar
    31   17   23 1
    32   18   19 ar
    33   18   22 1
    34   19   20 ar
    35   19   39 1
    36   20   21 1
    37   23   24 2
    38   23   25 am
    39   25   26 1
    40   25   40 1
    41   26   28 1
    42   26   27 1
    43   26   41 1
    44   27   28 1
    45   27   42 1
    46   27   43 1
    47   28   44 1
    48   28   45 1
@<TRIPOS>MOLECULE
CHEMBL195218
   63    65     0     0     0
SMALL
USER_CHARGES

@<TRIPOS>ATOM
      1 C1          0.5896    0.4889    0.7162 C.3       1 <0>        -0.1496
      2 C2          0.1521   -0.9157    0.2962 C.3       1 <0>        -0.0282
      3 C3          0.5811   -1.9242    1.3638 C.3       1 <0>        -0.1478
      4 C4         -1.3470   -0.9509    0.1455 C.2       1 <0>        -0.0954
      5 C5         -2.2908   -0.7700    1.1630 C.2       1 <0>         0.1017
      6 C6         -3.5312   -0.8780    0.6060 C.2       1 <0>         0.0646
      7 N1         -3.3979   -1.1192   -0.7191 N.pl3     1 <0>        -0.2325
      8 C7         -2.0509   -1.1619   -1.0244 C.2       1 <0>        -0.0890
      9 C8         -1.6698   -1.3975   -2.3653 C.2       1 <0>         0.5313
     10 N2         -2.6079   -1.5656   -3.2830 N.2       1 <0>        -0.6187
     11 C9         -3.9025   -1.5183   -2.9744 C.2       1 <0>         0.3177
     12 N3         -4.3216   -1.3136   -1.7557 N.2       1 <0>        -0.3278
     13 N4         -0.3340   -1.4510   -2.7132 N.pl3     1 <0>        -0.6148
     14 C10         0.0371   -1.8210   -4.0120 C.ar      1 <0>         0.1029
     15 C11        -0.9069   -2.3439   -4.8783 C.ar      1 <0>        -0.0673
     16 C12        -0.5335   -2.7114   -6.1731 C.ar      1 <0>        -0.1527
     17 C13         0.7931   -2.5484   -6.5863 C.ar      1 <0>         0.1796
     18 C14         1.7283   -2.0252   -5.7134 C.ar      1 <0>        -0.1732
     19 C15         1.3549   -1.6569   -4.4327 C.ar      1 <0>         0.1281
     20 F1          2.2726   -1.1409   -3.5861 F         1 <0>        -0.1214
     21 F2          1.1598   -2.9026   -7.8374 F         1 <0>        -0.1009
     22 C16        -1.5350   -3.2701   -7.1020 C.2       1 <0>         0.5752
     23 O1         -1.2078   -3.5893   -8.2287 O.2       1 <0>        -0.4988
     24 N5         -2.8123   -3.4265   -6.7015 N.am      1 <0>        -0.5937
     25 O2         -3.7732   -3.9626   -7.5928 O.3       1 <0>        -0.1375
     26 C17        -5.0848   -4.0722   -7.0362 C.3       1 <0>        -0.0039
     27 N6         -2.0102   -0.5215    2.5184 N.am      1 <0>        -0.6179
     28 C18        -3.0195   -0.3660    3.3980 C.2       1 <0>         0.6524
     29 O3         -4.1719   -0.4406    3.0198 O.2       1 <0>        -0.5535
     30 O4         -2.7508   -0.1281    4.6959 O.3       1 <0>        -0.3569
     31 C19        -3.8690    0.0262    5.5722 C.3       1 <0>         0.0923
     32 C20        -3.3699    0.2879    6.9947 C.3       1 <0>        -0.1129
     33 C21        -4.5671    0.4532    7.9329 C.3       1 <0>        -0.6161
     34 S1         -3.9754    0.7635    9.6193 S.o2      1 <0>         2.4258
     35 O5         -3.2911   -0.3951   10.0759 O.2       1 <0>        -0.9346
     36 O6         -3.3027    2.0151    9.6365 O.2       1 <0>        -0.9345
     37 C22        -5.5171    0.9277   10.5611 C.3       1 <0>        -0.6547
     38 H1          1.6738    0.5143    0.8252 H         1 <0>         0.0706
     39 H2          0.2839    1.2073   -0.0444 H         1 <0>         0.0616
     40 H3          0.1227    0.7457    1.6671 H         1 <0>         0.0591
     41 H4          0.6189   -1.1726   -0.6547 H         1 <0>         0.0686
     42 H5          0.1142   -1.6673    2.3147 H         1 <0>         0.0565
     43 H6          0.2694   -2.9249    1.0646 H         1 <0>         0.0633
     44 H7          1.6653   -1.8987    1.4728 H         1 <0>         0.0711
     45 H8         -4.4676   -0.7863    1.1363 H         1 <0>         0.2097
     46 H9         -4.6308   -1.6616   -3.7589 H         1 <0>         0.2229
     47 H10         0.3470   -1.2324   -2.0579 H         1 <0>         0.4293
     48 H11        -1.9296   -2.4678   -4.5540 H         1 <0>         0.2047
     49 H12         2.7523   -1.9000   -6.0328 H         1 <0>         0.1669
     50 H13        -3.0734   -3.1718   -5.8027 H         1 <0>         0.4076
     51 H14        -5.0559   -4.7250   -6.1638 H         1 <0>         0.0580
     52 H15        -5.4373   -3.0844   -6.7394 H         1 <0>         0.0590
     53 H16        -5.7617   -4.4908   -7.7810 H         1 <0>         0.1165
     54 H17        -1.0903   -0.4620    2.8203 H         1 <0>         0.4219
     55 H18        -4.4774    0.8674    5.2401 H         1 <0>         0.0779
     56 H19        -4.4690   -0.8837    5.5594 H         1 <0>         0.0779
     57 H20        -2.7614   -0.5532    7.3268 H         1 <0>         0.0955
     58 H21        -2.7699    1.1979    7.0075 H         1 <0>         0.0955
     59 H22        -5.1756    1.2944    7.6008 H         1 <0>         0.1383
     60 H23        -5.1671   -0.4567    7.9200 H         1 <0>         0.1382
     61 H24        -6.0924    0.0055   10.4799 H         1 <0>         0.1295
     62 H25        -5.2844    1.1198   11.6085 H         1 <0>         0.1331
     63 H26        -6.1009    1.7566   10.1607 H         1 <0>         0.1296
@<TRIPOS>BOND
     1    1    2 1
     2    1   38 1
     3    1   39 1
     4    1   40 1
     5    2    3 1
     6    2    4 1
     7    2   41 1
     8    3   42 1
     9    3   43 1
    10    3   44 1
    11    4    8 2
    12    4    5 1
    13    5    6 2
    14    5   27 1
    15    6    7 1
    16    6   45 1
    17    7   12 1
    18    7    8 1
    19    8    9 1
    20    9   10 2
    21    9   13 1
    22   10   11 1
    23   11   12 2
    24   11   46 1
    25   13   14 1
    26   13   47 1
    27   14   19 ar
    28   14   15 ar
    29   15   16 ar
    30   15   48 1
    31   16   17 ar
    32   16   22 1
    33   17   18 ar
    34   17   21 1
    35   18   19 ar
    36   18   49 1
    37   19   20 1
    38   22   23 2
    39   22   24 am
    40   24   25 1
    41   24   50 1
    42   25   26 1
    43   26   51 1
    44   26   52 1
    45   26   53 1
    46   27   28 am
    47   27   54 1
    48   28   29 2
    49   28   30 1
    50   30   31 1
    51   31   32 1
    52   31   55 1
    53   31   56 1
    54   32   33 1
    55   32   57 1
    56   32   58 1
    57   33   34 1
    58   33   59 1
    59   33   60 1
    60   34   35 2
    61   34   36 2
    62   34   37 1
    63   37   61 1
    64   37   62 1
    65   37   63 1
@<TRIPOS>MOLECULE
CHEMBL459478
   66    71     0     0     0
SMALL
USER_CHARGES

@<TRIPOS>ATOM
      1 C1         -1.5926   -0.8045   -0.0137 C.3       1 <0>        -0.1655
      2 C2         -1.0057   -1.1309   -1.3884 C.3       1 <0>         0.1251
      3 C3         -1.7068   -0.2878   -2.4555 C.3       1 <0>        -0.1655
      4 N1          0.4278   -0.8291   -1.3916 N.pl3     1 <0>        -0.4492
      5 C4          1.4396   -1.7150   -1.6320 C.2       1 <0>        -0.0138
      6 C5          2.6028   -1.0144   -1.5366 C.2       1 <0>         0.0613
      7 N2          2.2868    0.2651   -1.2447 N.2       1 <0>        -0.4691
      8 C6          0.9911    0.3779   -1.1630 C.2       1 <0>         0.1989
      9 C7          3.9659   -1.5569   -1.7193 C.2       1 <0>        -0.0105
     10 C8          5.1547   -0.9067   -1.6303 C.2       1 <0>        -0.1356
     11 C9          6.3571   -1.6077   -1.8398 C.ar      1 <0>         0.1652
     12 C10         6.2117   -2.9807   -2.1358 C.ar      1 <0>        -0.2095
     13 S1          4.4554   -3.2296   -2.1033 S.3       1 <0>         0.1017
     14 C11         7.3033   -3.7973   -2.3650 C.ar      1 <0>         0.2119
     15 C12         8.5727   -3.2253   -2.2963 C.ar      1 <0>        -0.2398
     16 C13         8.6717   -1.8759   -2.0035 C.ar      1 <0>         0.1590
     17 N3          7.6202   -1.1254   -1.7909 N.ar      1 <0>        -0.4780
     18 O1          7.1440   -5.1155   -2.6478 O.3       1 <0>        -0.2368
     19 C14         8.2512   -5.8388   -2.9647 C.ar      1 <0>         0.0199
     20 C15         8.6423   -5.9634   -4.2895 C.ar      1 <0>        -0.0645
     21 C16         9.7665   -6.6978   -4.6123 C.ar      1 <0>        -0.1429
     22 C17        10.5062   -7.3124   -3.6106 C.ar      1 <0>         0.1897
     23 C18        10.1158   -7.1884   -2.2841 C.ar      1 <0>        -0.1593
     24 C19         8.9937   -6.4481   -1.9608 C.ar      1 <0>         0.1255
     25 F1          8.6160   -6.3221   -0.6698 F         1 <0>        -0.1203
     26 N4         11.6460   -8.0579   -3.9387 N.am      1 <0>        -0.6585
     27 C20        12.6380   -8.2039   -3.0381 C.2       1 <0>         0.5354
     28 O2         12.5960   -7.6008   -1.9865 O.2       1 <0>        -0.4992
     29 C21        13.7993   -9.1163   -3.3375 C.3       1 <0>        -0.1468
     30 C22        14.8486   -9.0467   -2.2039 C.3       1 <0>        -0.1155
     31 C23        16.1720   -9.1661   -2.9918 C.3       1 <0>         0.0914
     32 N5         15.8707   -8.6716   -4.3404 N.am      1 <0>        -0.5499
     33 C24        14.5456   -8.6385   -4.5636 C.2       1 <0>         0.5272
     34 O3         14.0242   -8.2784   -5.5978 O.2       1 <0>        -0.4999
     35 C25        16.8386   -8.2843   -5.2737 C.ar      1 <0>         0.1577
     36 C26        16.4531   -7.7168   -6.4812 C.ar      1 <0>        -0.1541
     37 C27        17.4108   -7.3357   -7.4004 C.ar      1 <0>        -0.0913
     38 C28        18.7523   -7.5190   -7.1197 C.ar      1 <0>        -0.1403
     39 C29        19.1395   -8.0843   -5.9185 C.ar      1 <0>        -0.0924
     40 C30        18.1869   -8.4614   -4.9923 C.ar      1 <0>        -0.1537
     41 H1         -1.0932   -1.4052    0.7465 H         1 <0>         0.0663
     42 H2         -1.4436    0.2532    0.2032 H         1 <0>         0.0678
     43 H3         -2.6592   -1.0291   -0.0113 H         1 <0>         0.0815
     44 H4         -1.1548   -2.1887   -1.6053 H         1 <0>         0.1041
     45 H5         -1.5577    0.7699   -2.2386 H         1 <0>         0.0678
     46 H6         -1.2887   -0.5204   -3.4349 H         1 <0>         0.0662
     47 H7         -2.7734   -0.5124   -2.4531 H         1 <0>         0.0814
     48 H8          1.3367   -2.7669   -1.8541 H         1 <0>         0.1808
     49 H9          0.4539    1.2891   -0.9449 H         1 <0>         0.2094
     50 H10         5.1776    0.1480   -1.3993 H         1 <0>         0.1543
     51 H11         9.4575   -3.8205   -2.4671 H         1 <0>         0.1469
     52 H12         9.6519   -1.4258   -1.9486 H         1 <0>         0.1662
     53 H13         8.0671   -5.4863   -5.0691 H         1 <0>         0.1501
     54 H14        10.0703   -6.7943   -5.6442 H         1 <0>         0.1468
     55 H15        10.6906   -7.6666   -1.5047 H         1 <0>         0.1648
     56 H16        11.7212   -8.4691   -4.8140 H         1 <0>         0.4254
     57 H17        13.4527  -10.1403   -3.4769 H         1 <0>         0.1495
     58 H18        14.7922   -8.0936   -1.6782 H         1 <0>         0.1068
     59 H19        14.7304   -9.8801   -1.5113 H         1 <0>         0.1082
     60 H20        16.9437   -8.5515   -2.5283 H         1 <0>         0.0960
     61 H21        16.4929  -10.2069   -3.0346 H         1 <0>         0.0894
     62 H22        15.4054   -7.5740   -6.7013 H         1 <0>         0.1540
     63 H23        17.1116   -6.8942   -8.3395 H         1 <0>         0.1281
     64 H24        19.4993   -7.2205   -7.8403 H         1 <0>         0.1251
     65 H25        20.1880   -8.2268   -5.7025 H         1 <0>         0.1286
     66 H26        18.4901   -8.8984   -4.0523 H         1 <0>         0.1267
@<TRIPOS>BOND
     1    1    2 1
     2    1   41 1
     3    1   42 1
     4    1   43 1
     5    2    3 1
     6    2    4 1
     7    2   44 1
     8    3   45 1
     9    3   46 1
    10    3   47 1
    11    4    8 1
    12    4    5 1
    13    5    6 2
    14    5   48 1
    15    6    7 1
    16    6    9 1
    17    7    8 2
    18    8   49 1
    19    9   13 1
    20    9   10 2
    21   10   11 1
    22   10   50 1
    23   11   17 ar
    24   11   12 ar
    25   12   13 1
    26   12   14 ar
    27   14   15 ar
    28   14   18 1
    29   15   16 ar
    30   15   51 1
    31   16   17 ar
    32   16   52 1
    33   18   19 1
    34   19   24 ar
    35   19   20 ar
    36   20   21 ar
    37   20   53 1
    38   21   22 ar
    39   21   54 1
    40   22   23 ar
    41   22   26 1
    42   23   24 ar
    43   23   55 1
    44   24   25 1
    45   26   27 am
    46   26   56 1
    47   27   28 2
    48   27   29 1
    49   29   33 1
    50   29   30 1
    51   29   57 1
    52   30   31 1
    53   30   58 1
    54   30   59 1
    55   31   32 1
    56   31   60 1
    57   31   61 1
    58   32   33 am
    59   32   35 1
    60   33   34 2
    61   35   40 ar
    62   35   36 ar
    63   36   37 ar
    64   36   62 1
    65   37   38 ar
    66   37   63 1
    67   38   39 ar
    68   38   64 1
    69   39   40 ar
    70   39   65 1
    71   40   66 1
@<TRIPOS>MOLECULE
CHEMBL459478__1
   67    72     0     0     0
SMALL
USER_CHARGES

@<TRIPOS>ATOM
      1 C1          0.8250   -0.7642   -1.3869 C.3       1 <0>        -0.1760
      2 C2          1.7274   -1.1004   -0.1979 C.3       1 <0>         0.1176
      3 C3          2.9888   -0.2363   -0.2546 C.3       1 <0>        -0.1760
      4 N1          1.0091   -0.8346    1.0509 N.pl3     1 <0>        -0.3979
      5 C4          0.7255   -1.7448    2.0294 C.2       1 <0>         0.0502
      6 C5          0.0507   -1.0740    3.0028 C.2       1 <0>         0.1234
      7 N2         -0.0641    0.2120    2.6089 N.pl3     1 <0>        -0.4710
      8 C6          0.5108    0.3571    1.4484 C.cat     1 <0>         0.3017
      9 C7         -0.4638   -1.6499    4.2635 C.2       1 <0>        -0.1194
     10 C8         -1.1451   -1.0301    5.2614 C.2       1 <0>        -0.0832
     11 C9         -1.5536   -1.7603    6.3931 C.ar      1 <0>         0.1383
     12 C10        -1.2032   -3.1281    6.3877 C.ar      1 <0>        -0.1941
     13 S1         -0.3498   -3.3330    4.8459 S.3       1 <0>         0.1701
     14 C11        -1.5375   -3.9711    7.4311 C.ar      1 <0>         0.2102
     15 C12        -2.2402   -3.4314    8.5073 C.ar      1 <0>        -0.2134
     16 C13        -2.5644   -2.0859    8.4736 C.ar      1 <0>         0.1670
     17 N3         -2.2347   -1.3100    7.4719 N.ar      1 <0>        -0.4690
     18 O1         -1.1924   -5.2839    7.4083 O.3       1 <0>        -0.2323
     19 C14        -1.4600   -6.0336    8.5109 C.ar      1 <0>         0.0051
     20 C15        -0.5062   -6.1634    9.5093 C.ar      1 <0>        -0.0611
     21 C16        -0.7770   -6.9246   10.6294 C.ar      1 <0>        -0.1430
     22 C17        -2.0045   -7.5611   10.7568 C.ar      1 <0>         0.2001
     23 C18        -2.9602   -7.4320    9.7580 C.ar      1 <0>        -0.1597
     24 C19        -2.6910   -6.6648    8.6397 C.ar      1 <0>         0.1287
     25 F1         -3.6223   -6.5340    7.6697 F         1 <0>        -0.1207
     26 N4         -2.2784   -8.3338   11.8927 N.am      1 <0>        -0.6597
     27 C20        -3.5518   -8.5078   12.2984 C.2       1 <0>         0.5379
     28 O2         -4.4509   -7.9075   11.7484 O.2       1 <0>        -0.4987
     29 C21        -3.8586   -9.4481   13.4354 C.3       1 <0>        -0.1475
     30 C22        -5.3658   -9.4088   13.7785 C.3       1 <0>        -0.1152
     31 C23        -5.3429   -9.5586   15.3159 C.3       1 <0>         0.0905
     32 N5         -4.0322   -9.0520   15.7392 N.am      1 <0>        -0.5483
     33 C24        -3.1771   -8.9848   14.7041 C.2       1 <0>         0.5269
     34 O3         -2.0266   -8.6081   14.7769 O.2       1 <0>        -0.5018
     35 C25        -3.7135   -8.6858   17.0515 C.ar      1 <0>         0.1553
     36 C26        -2.4840   -8.1046   17.3327 C.ar      1 <0>        -0.1541
     37 C27        -2.1725   -7.7444   18.6291 C.ar      1 <0>        -0.0918
     38 C28        -3.0831   -7.9624   19.6467 C.ar      1 <0>        -0.1385
     39 C29        -4.3081   -8.5413   19.3700 C.ar      1 <0>        -0.0916
     40 C30        -4.6283   -8.8977   18.0747 C.ar      1 <0>        -0.1525
     41 H1          0.5463    0.2887   -1.3451 H         1 <0>         0.0741
     42 H2          1.3595   -0.9619   -2.3160 H         1 <0>         0.1031
     43 H3         -0.0735   -1.3798   -1.3465 H         1 <0>         0.0765
     44 H4          2.0062   -2.1533   -0.2397 H         1 <0>         0.1346
     45 H5          2.7100    0.8167   -0.2128 H         1 <0>         0.0741
     46 H6          3.6316   -0.4758    0.5924 H         1 <0>         0.0765
     47 H7          3.5232   -0.4340   -1.1837 H         1 <0>         0.1031
     48 H8          0.9857   -2.7930    2.0303 H         1 <0>         0.2268
     49 H9          0.5763    1.2806    0.8925 H         1 <0>         0.2638
     50 H10        -1.3730    0.0230    5.1867 H         1 <0>         0.1496
     51 H11        -2.5252   -4.0480    9.3468 H         1 <0>         0.1568
     52 H12        -3.1087   -1.6608    9.3039 H         1 <0>         0.1761
     53 H13         0.4490   -5.6692    9.4106 H         1 <0>         0.1503
     54 H14        -0.0336   -7.0251   11.4064 H         1 <0>         0.1499
     55 H15        -3.9150   -7.9271    9.8565 H         1 <0>         0.1676
     56 H16        -1.5515   -8.7437   12.3873 H         1 <0>         0.4276
     57 H17        -3.5487  -10.4625   13.1845 H         1 <0>         0.1507
     58 H18        -5.8078   -8.4564   13.4859 H         1 <0>         0.1063
     59 H19        -5.8936  -10.2413   13.3133 H         1 <0>         0.1089
     60 H20        -6.1396   -8.9652   15.7646 H         1 <0>         0.0969
     61 H21        -5.4500  -10.6070   15.5943 H         1 <0>         0.0907
     62 H22        -1.7721   -7.9348   16.5385 H         1 <0>         0.1533
     63 H23        -1.2165   -7.2923   18.8485 H         1 <0>         0.1283
     64 H24        -2.8370   -7.6801   20.6597 H         1 <0>         0.1261
     65 H25        -5.0169   -8.7109   20.1671 H         1 <0>         0.1297
     66 H26        -5.5870   -9.3455   17.8585 H         1 <0>         0.1271
     67 H27        -0.5022    0.9168    3.1112 H         1 <0>         0.4652
@<TRIPOS>BOND
     1    1    2 1
     2    1   41 1
     3    1   42 1
     4    1   43 1
     5    2    3 1
     6    2    4 1
     7    2   44 1
     8    3   45 1
     9    3   46 1
    10    3   47 1
    11    4    8 1
    12    4    5 1
    13    5    6 2
    14    5   48 1
    15    6    7 1
    16    6    9 1
    17    7    8 2
    18    7   67 1
    19    8   49 1
    20    9   13 1
    21    9   10 2
    22   10   11 1
    23   10   50 1
    24   11   17 ar
    25   11   12 ar
    26   12   13 1
    27   12   14 ar
    28   14   15 ar
    29   14   18 1
    30   15   16 ar
    31   15   51 1
    32   16   17 ar
    33   16   52 1
    34   18   19 1
    35   19   24 ar
    36   19   20 ar
    37   20   21 ar
    38   20   53 1
    39   21   22 ar
    40   21   54 1
    41   22   23 ar
    42   22   26 1
    43   23   24 ar
    44   23   55 1
    45   24   25 1
    46   26   27 am
    47   26   56 1
    48   27   28 2
    49   27   29 1
    50   29   33 1
    51   29   30 1
    52   29   57 1
    53   30   31 1
    54   30   58 1
    55   30   59 1
    56   31   32 1
    57   31   60 1
    58   31   61 1
    59   32   33 am
    60   32   35 1
    61   33   34 2
    62   35   40 ar
    63   35   36 ar
    64   36   37 ar
    65   36   62 1
    66   37   38 ar
    67   37   63 1
    68   38   39 ar
    69   38   64 1
    70   39   40 ar
    71   39   65 1
    72   40   66 1
@<TRIPOS>MOLECULE
CHEMBL459478__2
   66    71     0     0     0
SMALL
USER_CHARGES

@<TRIPOS>ATOM
      1 C1         -1.4899   -0.4239   -0.2711 C.3       1 <0>        -0.1655
      2 C2         -0.9043   -0.8010   -1.6333 C.3       1 <0>         0.1251
      3 C3         -1.5900    0.0191   -2.7279 C.3       1 <0>        -0.1655
      4 N1          0.5336   -0.5205   -1.6414 N.pl3     1 <0>        -0.4492
      5 C4          1.5328   -1.4282   -1.8513 C.2       1 <0>        -0.0137
      6 C5          2.7059   -0.7422   -1.7740 C.2       1 <0>         0.0612
      7 N2          2.4082    0.5502   -1.5224 N.2       1 <0>        -0.4691
      8 C6          1.1141    0.6845   -1.4482 C.2       1 <0>         0.1989
      9 C7          4.0614   -1.3100   -1.9357 C.2       1 <0>        -0.0104
     10 C8          5.2595   -0.6749   -1.8631 C.2       1 <0>        -0.1355
     11 C9          6.4519   -1.3996   -2.0473 C.ar      1 <0>         0.1654
     12 C10         6.2869   -2.7787   -2.3014 C.ar      1 <0>        -0.2095
     13 S1          4.5271   -3.0007   -2.2667 S.3       1 <0>         0.1020
     14 C11         7.3669   -3.6180   -2.5021 C.ar      1 <0>         0.2122
     15 C12         8.6445   -3.0629   -2.4471 C.ar      1 <0>        -0.2398
     16 C13         8.7627   -1.7067   -2.1955 C.ar      1 <0>         0.1592
     17 N3          7.7219   -0.9347   -2.0093 N.ar      1 <0>        -0.4778
     18 O1          7.1890   -4.9418   -2.7448 O.3       1 <0>        -0.2372
     19 C14         8.2861   -5.6905   -3.0367 C.ar      1 <0>         0.0259
     20 C15         8.6583   -5.8894   -4.3578 C.ar      1 <0>        -0.0686
     21 C16         9.7722   -6.6496   -4.6553 C.ar      1 <0>        -0.1182
     22 C17        10.5205   -7.2160   -3.6318 C.ar      1 <0>         0.1851
     23 C18        10.1489   -7.0176   -2.3088 C.ar      1 <0>        -0.1673
     24 C19         9.0372   -6.2514   -2.0113 C.ar      1 <0>         0.1211
     25 F1          8.6779   -6.0532   -0.7241 F         1 <0>        -0.1206
     26 N4         11.6498   -7.9877   -3.9341 N.am      1 <0>        -0.6603
     27 C20        12.4282   -7.6605   -4.9846 C.2       1 <0>         0.5377
     28 O2         12.1115   -6.7425   -5.7113 O.2       1 <0>        -0.5020
     29 C21        13.6919   -8.4353   -5.2563 C.3       1 <0>        -0.1465
     30 C22        14.4586   -7.8188   -6.4492 C.3       1 <0>        -0.1150
     31 C23        15.9278   -8.0056   -6.0097 C.3       1 <0>         0.0912
     32 N5         15.8936   -8.0629   -4.5436 N.am      1 <0>        -0.5506
     33 C24        14.6511   -8.3085   -4.0934 C.2       1 <0>         0.5268
     34 O3         14.3436   -8.4128   -2.9248 O.2       1 <0>        -0.4978
     35 C25        17.0108   -7.8847   -3.7203 C.ar      1 <0>         0.1583
     36 C26        16.9043   -8.0841   -2.3500 C.ar      1 <0>        -0.1544
     37 C27        18.0090   -7.9074   -1.5401 C.ar      1 <0>        -0.0913
     38 C28        19.2200   -7.5320   -2.0921 C.ar      1 <0>        -0.1406
     39 C29        19.3292   -7.3323   -3.4560 C.ar      1 <0>        -0.0923
     40 C30        18.2299   -7.5138   -4.2722 C.ar      1 <0>        -0.1543
     41 H1         -1.0014   -1.0082    0.5087 H         1 <0>         0.0663
     42 H2         -1.3258    0.6377   -0.0864 H         1 <0>         0.0678
     43 H3         -2.5597   -0.6326   -0.2651 H         1 <0>         0.0815
     44 H4         -1.0684   -1.8626   -1.8181 H         1 <0>         0.1041
     45 H5         -1.4259    1.0807   -2.5432 H         1 <0>         0.0678
     46 H6         -1.1728   -0.2496   -3.6984 H         1 <0>         0.0662
     47 H7         -2.6598   -0.1896   -2.7220 H         1 <0>         0.0814
     48 H8          1.4149   -2.4848   -2.0414 H         1 <0>         0.1808
     49 H9          0.5898    1.6098   -1.2599 H         1 <0>         0.2094
     50 H10         5.2973    0.3860   -1.6645 H         1 <0>         0.1543
     51 H11         9.5208   -3.6760   -2.5968 H         1 <0>         0.1464
     52 H12         9.7493   -1.2696   -2.1514 H         1 <0>         0.1662
     53 H13         8.0764   -5.4498   -5.1545 H         1 <0>         0.1493
     54 H14        10.0613   -6.8039   -5.6844 H         1 <0>         0.1566
     55 H15        10.7304   -7.4582   -1.5125 H         1 <0>         0.1519
     56 H16        11.8716   -8.7576   -3.3873 H         1 <0>         0.4228
     57 H17        13.4619   -9.4832   -5.4486 H         1 <0>         0.1484
     58 H18        14.2541   -8.3664   -7.3693 H         1 <0>         0.1079
     59 H19        14.2171   -6.7621   -6.5641 H         1 <0>         0.1066
     60 H20        16.3272   -8.9355   -6.4143 H         1 <0>         0.0895
     61 H21        16.5308   -7.1598   -6.3402 H         1 <0>         0.0954
     62 H22        15.9586   -8.3766   -1.9182 H         1 <0>         0.1541
     63 H23        17.9268   -8.0623   -0.4744 H         1 <0>         0.1279
     64 H24        20.0822   -7.3941   -1.4565 H         1 <0>         0.1250
     65 H25        20.2762   -7.0384   -3.8840 H         1 <0>         0.1285
     66 H26        18.3171   -7.3623   -5.3380 H         1 <0>         0.1267
@<TRIPOS>BOND
     1    1    2 1
     2    1   41 1
     3    1   42 1
     4    1   43 1
     5    2    3 1
     6    2    4 1
     7    2   44 1
     8    3   45 1
     9    3   46 1
    10    3   47 1
    11    4    8 1
    12    4    5 1
    13    5    6 2
    14    5   48 1
    15    6    7 1
    16    6    9 1
    17    7    8 2
    18    8   49 1
    19    9   13 1
    20    9   10 2
    21   10   11 1
    22   10   50 1
    23   11   17 ar
    24   11   12 ar
    25   12   13 1
    26   12   14 ar
    27   14   15 ar
    28   14   18 1
    29   15   16 ar
    30   15   51 1
    31   16   17 ar
    32   16   52 1
    33   18   19 1
    34   19   24 ar
    35   19   20 ar
    36   20   21 ar
    37   20   53 1
    38   21   22 ar
    39   21   54 1
    40   22   23 ar
    41   22   26 1
    42   23   24 ar
    43   23   55 1
    44   24   25 1
    45   26   27 am
    46   26   56 1
    47   27   28 2
    48   27   29 1
    49   29   33 1
    50   29   30 1
    51   29   57 1
    52   30   31 1
    53   30   58 1
    54   30   59 1
    55   31   32 1
    56   31   60 1
    57   31   61 1
    58   32   33 am
    59   32   35 1
    60   33   34 2
    61   35   40 ar
    62   35   36 ar
    63   36   37 ar
    64   36   62 1
    65   37   38 ar
    66   37   63 1
    67   38   39 ar
    68   38   64 1
    69   39   40 ar
    70   39   65 1
    71   40   66 1
@<TRIPOS>MOLECULE
CHEMBL459478__3
   67    72     0     0     0
SMALL
USER_CHARGES

@<TRIPOS>ATOM
      1 C1          0.9907   -0.3854   -1.1616 C.3       1 <0>        -0.1761
      2 C2          1.8837   -0.7723    0.0190 C.3       1 <0>         0.1176
      3 C3          3.1616    0.0686   -0.0111 C.3       1 <0>        -0.1761
      4 N1          1.1677   -0.5280    1.2735 N.pl3     1 <0>        -0.3979
      5 C4          0.8644   -1.4597    2.2255 C.2       1 <0>         0.0502
      6 C5          0.2005   -0.8036    3.2162 C.2       1 <0>         0.1233
      7 N2          0.1113    0.4950    2.8585 N.pl3     1 <0>        -0.4710
      8 C6          0.6916    0.6615    1.7036 C.cat     1 <0>         0.3018
      9 C7         -0.3280   -1.4047    4.4593 C.2       1 <0>        -0.1192
     10 C8         -0.9994   -0.8002    5.4730 C.2       1 <0>        -0.0832
     11 C9         -1.4245   -1.5539    6.5831 C.ar      1 <0>         0.1385
     12 C10        -1.1005   -2.9276    6.5397 C.ar      1 <0>        -0.1941
     13 S1         -0.2477   -3.1054    4.9942 S.3       1 <0>         0.1703
     14 C11        -1.4533   -3.7930    7.5584 C.ar      1 <0>         0.2106
     15 C12        -2.1480   -3.2703    8.6481 C.ar      1 <0>        -0.2134
     16 C13        -2.4461   -1.9183    8.6517 C.ar      1 <0>         0.1672
     17 N3         -2.0993   -1.1211    7.6729 N.ar      1 <0>        -0.4688
     18 O1         -1.1336   -5.1110    7.4991 O.3       1 <0>        -0.2327
     19 C14        -1.4174   -5.8860    8.5800 C.ar      1 <0>         0.0114
     20 C15        -0.4561   -6.0895    9.5588 C.ar      1 <0>        -0.0653
     21 C16        -0.7434   -6.8764   10.6568 C.ar      1 <0>        -0.1185
     22 C17        -1.9949   -7.4650   10.7816 C.ar      1 <0>         0.1956
     23 C18        -2.9580   -7.2620    9.8025 C.ar      1 <0>        -0.1673
     24 C19        -2.6721   -6.4692    8.7064 C.ar      1 <0>         0.1241
     25 F1         -3.6104   -6.2665    7.7558 F         1 <0>        -0.1210
     26 N4         -2.2854   -8.2638   11.8951 N.am      1 <0>        -0.6618
     27 C20        -1.7696   -7.9525   13.1008 C.2       1 <0>         0.5403
     28 O2         -0.9964   -7.0243   13.2083 O.2       1 <0>        -0.5019
     29 C21        -2.1537   -8.7578   14.3153 C.3       1 <0>        -0.1472
     30 C22        -1.5134   -8.1566   15.5879 C.3       1 <0>        -0.1146
     31 C23        -2.6253   -8.3817   16.6364 C.3       1 <0>         0.0903
     32 N5         -3.8771   -8.4433   15.8727 N.am      1 <0>        -0.5492
     33 C24        -3.6422   -8.6592   14.5669 C.2       1 <0>         0.5265
     34 O3         -4.4990   -8.7599   13.7144 O.2       1 <0>        -0.4998
     35 C25        -5.1512   -8.2961   16.4320 C.ar      1 <0>         0.1559
     36 C26        -6.2815   -8.4975   15.6507 C.ar      1 <0>        -0.1543
     37 C27        -7.5378   -8.3515   16.2057 C.ar      1 <0>        -0.0917
     38 C28        -7.6707   -8.0046   17.5377 C.ar      1 <0>        -0.1388
     39 C29        -6.5472   -7.8030   18.3182 C.ar      1 <0>        -0.0917
     40 C30        -5.2881   -7.9539   17.7709 C.ar      1 <0>        -0.1533
     41 H1          0.7322    0.6711   -1.0906 H         1 <0>         0.0741
     42 H2          1.5234   -0.5672   -2.0950 H         1 <0>         0.1031
     43 H3          0.0803   -0.9844   -1.1402 H         1 <0>         0.0765
     44 H4          2.1422   -1.8288   -0.0520 H         1 <0>         0.1346
     45 H5          2.9030    1.1251    0.0599 H         1 <0>         0.0742
     46 H6          3.7978   -0.2071    0.8299 H         1 <0>         0.0765
     47 H7          3.6943   -0.1132   -0.9445 H         1 <0>         0.1031
     48 H8          1.1044   -2.5123    2.1973 H         1 <0>         0.2268
     49 H9          0.7761    1.5989    1.1740 H         1 <0>         0.2638
     50 H10        -1.2069    0.2588    5.4277 H         1 <0>         0.1496
     51 H11        -2.4468   -3.9047    9.4694 H         1 <0>         0.1564
     52 H12        -2.9841   -1.5064    9.4927 H         1 <0>         0.1761
     53 H13         0.5177   -5.6327    9.4621 H         1 <0>         0.1496
     54 H14         0.0058   -7.0343   11.4185 H         1 <0>         0.1595
     55 H15        -3.9314   -7.7198    9.8990 H         1 <0>         0.1551
     56 H16        -2.8578   -9.0409   11.7984 H         1 <0>         0.4250
     57 H17        -1.8560   -9.7990   14.1914 H         1 <0>         0.1497
     58 H18        -0.6059   -8.6956   15.8599 H         1 <0>         0.1087
     59 H19        -1.3098   -7.0938   15.4573 H         1 <0>         0.1060
     60 H20        -2.4600   -9.3200   17.1660 H         1 <0>         0.0908
     61 H21        -2.6536   -7.5502   17.3407 H         1 <0>         0.0963
     62 H22        -6.1783   -8.7678   14.6102 H         1 <0>         0.1535
     63 H23        -8.4172   -8.5080   15.5987 H         1 <0>         0.1282
     64 H24        -8.6542   -7.8907   17.9693 H         1 <0>         0.1260
     65 H25        -6.6544   -7.5314   19.3580 H         1 <0>         0.1295
     66 H26        -4.4110   -7.8010   18.3822 H         1 <0>         0.1271
     67 H27        -0.3142    1.1937    3.3797 H         1 <0>         0.4652
@<TRIPOS>BOND
     1    1    2 1
     2    1   41 1
     3    1   42 1
     4    1   43 1
     5    2    3 1
     6    2    4 1
     7    2   44 1
     8    3   45 1
     9    3   46 1
    10    3   47 1
    11    4    8 1
    12    4    5 1
    13    5    6 2
    14    5   48 1
    15    6    7 1
    16    6    9 1
    17    7    8 2
    18    7   67 1
    19    8   49 1
    20    9   13 1
    21    9   10 2
    22   10   11 1
    23   10   50 1
    24   11   17 ar
    25   11   12 ar
    26   12   13 1
    27   12   14 ar
    28   14   15 ar
    29   14   18 1
    30   15   16 ar
    31   15   51 1
    32   16   17 ar
    33   16   52 1
    34   18   19 1
    35   19   24 ar
    36   19   20 ar
    37   20   21 ar
    38   20   53 1
    39   21   22 ar
    40   21   54 1
    41   22   23 ar
    42   22   26 1
    43   23   24 ar
    44   23   55 1
    45   24   25 1
    46   26   27 am
    47   26   56 1
    48   27   28 2
    49   27   29 1
    50   29   33 1
    51   29   30 1
    52   29   57 1
    53   30   31 1
    54   30   58 1
    55   30   59 1
    56   31   32 1
    57   31   60 1
    58   31   61 1
    59   32   33 am
    60   32   35 1
    61   33   34 2
    62   35   40 ar
    63   35   36 ar
    64   36   37 ar
    65   36   62 1
    66   37   38 ar
    67   37   63 1
    68   38   39 ar
    69   38   64 1
    70   39   40 ar
    71   39   65 1
    72   40   66 1
@<TRIPOS>MOLECULE
CHEMBL369322
   65    68     0     0     0
SMALL
USER_CHARGES

@<TRIPOS>ATOM
      1 C1          1.1965    1.3977   -0.0384 C.3       1 <0>        -0.1102
      2 C2          0.9162   -0.0830   -0.0348 C.ar      1 <0>        -0.1207
      3 C3          0.4319   -0.6965   -1.1747 C.ar      1 <0>        -0.0865
      4 C4          0.1743   -2.0534   -1.1756 C.ar      1 <0>        -0.1464
      5 C5          0.4012   -2.8053   -0.0291 C.ar      1 <0>         0.1439
      6 C6          0.8876   -2.1908    1.1165 C.ar      1 <0>        -0.1725
      7 C7          1.1502   -0.8297    1.1113 C.ar      1 <0>         0.1241
      8 O1          1.6313   -0.2259    2.2297 O.3       1 <0>        -0.4925
      9 N1          0.1397   -4.1783   -0.0294 N.pl3     1 <0>        -0.6136
     10 C8          0.0254   -4.8596   -1.2263 C.2       1 <0>         0.5236
     11 C9         -0.1065   -6.2668   -1.2385 C.2       1 <0>        -0.0736
     12 C10        -0.1547   -7.2308   -0.2495 C.2       1 <0>        -0.0948
     13 C11        -0.2971   -8.4657   -0.8897 C.2       1 <0>         0.0602
     14 C12        -0.3327   -8.2388   -2.2329 C.2       1 <0>        -0.0153
     15 N2         -0.2180   -6.9086   -2.4570 N.pl3     1 <0>        -0.2223
     16 N3         -0.1943   -6.1310   -3.6233 N.2       1 <0>        -0.3478
     17 C13        -0.0695   -4.8347   -3.5416 C.2       1 <0>         0.3301
     18 N4          0.0327   -4.2020   -2.3743 N.2       1 <0>        -0.5994
     19 O2         -0.3846   -9.6797   -0.2794 O.3       1 <0>        -0.2856
     20 C14        -0.5270  -10.8224   -1.1254 C.3       1 <0>         0.0610
     21 C15        -0.6087  -12.0859   -0.2665 C.3       1 <0>        -0.1494
     22 C16        -0.7612  -13.3095   -1.1723 C.3       1 <0>        -0.0065
     23 N5         -0.8396  -14.5226   -0.3476 N.4       1 <0>        -0.3814
     24 C17         0.4303  -14.7116    0.3639 C.3       1 <0>        -0.0137
     25 C18         0.3263  -15.9281    1.2863 C.3       1 <0>        -0.1458
     26 C19         0.0187  -17.1725    0.4483 C.3       1 <0>        -0.1400
     27 C20        -1.2685  -16.9352   -0.3466 C.3       1 <0>        -0.1464
     28 C21        -1.1055  -15.6814   -1.2085 C.3       1 <0>        -0.0065
     29 C22        -0.0691   -6.9959    1.2366 C.3       1 <0>        -0.0198
     30 C23        -1.2661   -7.6532    1.9266 C.3       1 <0>        -0.1438
     31 C24         1.2273   -7.6041    1.7753 C.3       1 <0>        -0.1437
     32 H1          2.2249    1.5720   -0.3544 H         1 <0>         0.0729
     33 H2          0.5150    1.8947   -0.7287 H         1 <0>         0.0675
     34 H3          1.0521    1.7972    0.9654 H         1 <0>         0.0675
     35 H4          0.2542   -0.1137   -2.0664 H         1 <0>         0.1327
     36 H5         -0.2042   -2.5303   -2.0676 H         1 <0>         0.1890
     37 H6          1.0645   -2.7726    2.0090 H         1 <0>         0.1300
     38 H7          0.9444    0.1055    2.8242 H         1 <0>         0.3910
     39 H8          0.0385   -4.6529    0.8104 H         1 <0>         0.4222
     40 H9         -0.4357   -8.9970   -2.9950 H         1 <0>         0.1776
     41 H10        -0.0531   -4.2542   -4.4522 H         1 <0>         0.2260
     42 H11        -1.4377  -10.7256   -1.7166 H         1 <0>         0.0707
     43 H12         0.3330  -10.8909   -1.7915 H         1 <0>         0.0703
     44 H13         0.3019  -12.1828    0.3247 H         1 <0>         0.0992
     45 H14        -1.4688  -12.0175    0.3996 H         1 <0>         0.0993
     46 H15        -1.6718  -13.2126   -1.7635 H         1 <0>         0.1350
     47 H16         0.0989  -13.3779   -1.8384 H         1 <0>         0.1332
     48 H17         1.2307  -14.8714   -0.3586 H         1 <0>         0.1292
     49 H18         0.6494  -13.8240    0.9573 H         1 <0>         0.1325
     50 H19         1.2707  -16.0678    1.8123 H         1 <0>         0.1124
     51 H20        -0.4737  -15.7693    2.0093 H         1 <0>         0.0879
     52 H21         0.8426  -17.3612   -0.2400 H         1 <0>         0.0818
     53 H22        -0.1123  -18.0317    1.1061 H         1 <0>         0.0945
     54 H23        -1.4641  -17.7947   -0.9877 H         1 <0>         0.1127
     55 H24        -2.1017  -16.7973    0.3426 H         1 <0>         0.0879
     56 H25        -2.0201  -15.5096   -1.7759 H         1 <0>         0.1307
     57 H26        -0.2723  -15.8204   -1.8974 H         1 <0>         0.1289
     58 H27        -0.0781   -5.9243    1.4362 H         1 <0>         0.0623
     59 H28        -1.2571   -8.7247    1.7271 H         1 <0>         0.0671
     60 H29        -1.2042   -7.4833    3.0015 H         1 <0>         0.0623
     61 H30        -2.1897   -7.2199    1.5428 H         1 <0>         0.0552
     62 H31         2.0800   -7.1358    1.2838 H         1 <0>         0.0553
     63 H32         1.2892   -7.4342    2.8502 H         1 <0>         0.0635
     64 H33         1.2363   -8.6757    1.5758 H         1 <0>         0.0637
     65 H34        -1.5871  -14.4245    0.3229 H         1 <0>         0.4236
@<TRIPOS>BOND
     1    1    2 1
     2    1   32 1
     3    1   33 1
     4    1   34 1
     5    2    7 ar
     6    2    3 ar
     7    3    4 ar
     8    3   35 1
     9    4    5 ar
    10    4   36 1
    11    5    6 ar
    12    5    9 1
    13    6    7 ar
    14    6   37 1
    15    7    8 1
    16    8   38 1
    17    9   10 1
    18    9   39 1
    19   10   18 2
    20   10   11 1
    21   11   15 1
    22   11   12 2
    23   12   13 1
    24   12   29 1
    25   13   14 2
    26   13   19 1
    27   14   15 1
    28   14   40 1
    29   15   16 1
    30   16   17 2
    31   17   18 1
    32   17   41 1
    33   19   20 1
    34   20   21 1
    35   20   42 1
    36   20   43 1
    37   21   22 1
    38   21   44 1
    39   21   45 1
    40   22   23 1
    41   22   46 1
    42   22   47 1
    43   23   28 1
    44   23   24 1
    45   23   65 1
    46   24   25 1
    47   24   48 1
    48   24   49 1
    49   25   26 1
    50   25   50 1
    51   25   51 1
    52   26   27 1
    53   26   52 1
    54   26   53 1
    55   27   28 1
    56   27   54 1
    57   27   55 1
    58   28   56 1
    59   28   57 1
    60   29   30 1
    61   29   31 1
    62   29   58 1
    63   30   59 1
    64   30   60 1
    65   30   61 1
    66   31   62 1
    67   31   63 1
    68   31   64 1
@<TRIPOS>MOLECULE
CHEMBL190980
   55    59     0     0     0
SMALL
USER_CHARGES

@<TRIPOS>ATOM
      1 C1         -0.6424    1.7717   -0.1518 C.3       1 <0>        -0.1579
      2 C2         -0.2413    0.2953   -0.1602 C.3       1 <0>        -0.0227
      3 C3          0.7234    0.0222    0.9955 C.3       1 <0>        -0.1569
      4 C4         -1.4715   -0.5604   -0.0004 C.2       1 <0>        -0.0123
      5 C5         -2.3714   -0.5423    1.0825 C.2       1 <0>        -0.0967
      6 C6         -3.3508   -1.4829    0.8194 C.2       1 <0>         0.1193
      7 N1         -3.0860   -2.0636   -0.3630 N.pl3     1 <0>        -0.2295
      8 C7         -1.9351   -1.5065   -0.8888 C.2       1 <0>        -0.1092
      9 C8         -1.4723   -1.9715   -2.1439 C.2       1 <0>         0.5395
     10 N2         -2.1518   -2.9160   -2.7728 N.2       1 <0>        -0.6228
     11 C9         -3.2608   -3.4406   -2.2546 C.2       1 <0>         0.3350
     12 N3         -3.7371   -3.0640   -1.1000 N.2       1 <0>        -0.3418
     13 N4         -0.3260   -1.4449   -2.7044 N.pl3     1 <0>        -0.6145
     14 C10         0.0516   -1.8124   -4.0021 C.ar      1 <0>         0.0993
     15 C11        -0.8876   -2.3358   -4.8734 C.ar      1 <0>        -0.0422
     16 C12        -0.5078   -2.7008   -6.1670 C.ar      1 <0>        -0.1541
     17 C13         0.8204   -2.5349   -6.5740 C.ar      1 <0>         0.1852
     18 C14         1.7507   -2.0113   -5.6962 C.ar      1 <0>        -0.1741
     19 C15         1.3710   -1.6454   -4.4167 C.ar      1 <0>         0.1354
     20 F1          2.2839   -1.1289   -3.5652 F         1 <0>        -0.1187
     21 F2          1.1934   -2.8867   -7.8239 F         1 <0>        -0.0993
     22 C16        -1.5040   -3.2601   -7.1011 C.2       1 <0>         0.5754
     23 O1         -1.1712   -3.5771   -8.2267 O.2       1 <0>        -0.4974
     24 N5         -2.7829   -3.4193   -6.7065 N.am      1 <0>        -0.5940
     25 O2         -3.7388   -3.9559   -7.6029 O.3       1 <0>        -0.1369
     26 C17        -5.0526   -4.0687   -7.0523 C.3       1 <0>        -0.0032
     27 C18        -2.2850    0.3213    2.2791 C.2       1 <0>         0.2453
     28 N6         -1.3586    1.2177    2.5273 N.2       1 <0>        -0.2640
     29 N7         -1.6028    1.7780    3.6594 N.2       1 <0>        -0.2826
     30 C19        -2.6848    1.2666    4.1746 C.2       1 <0>         0.2005
     31 O3         -3.1459    0.3393    3.3161 O.3       1 <0>        -0.2175
     32 C20        -3.3096    1.6485    5.4918 C.3       1 <0>        -0.0890
     33 C21        -2.7410    2.8708    6.2153 C.3       1 <0>        -0.1425
     34 C22        -2.4644    1.4657    6.7539 C.3       1 <0>        -0.1509
     35 H1          0.2474    2.3906   -0.2674 H         1 <0>         0.0662
     36 H2         -1.3297    1.9662   -0.9751 H         1 <0>         0.0489
     37 H3         -1.1306    2.0102    0.7931 H         1 <0>         0.0916
     38 H4          0.2469    0.0567   -1.1051 H         1 <0>         0.0595
     39 H5          0.2352    0.2608    1.9404 H         1 <0>         0.0892
     40 H6          1.0092   -1.0296    0.9895 H         1 <0>         0.0493
     41 H7          1.6132    0.6411    0.8799 H         1 <0>         0.0668
     42 H8         -4.1901   -1.7128    1.4590 H         1 <0>         0.1953
     43 H9         -3.7807   -4.2095   -2.8068 H         1 <0>         0.2257
     44 H10         0.2181   -0.8204   -2.1996 H         1 <0>         0.4309
     45 H11        -1.9115   -2.4620   -4.5538 H         1 <0>         0.1817
     46 H12         2.7759   -1.8835   -6.0109 H         1 <0>         0.1683
     47 H13        -3.0484   -3.1664   -5.8085 H         1 <0>         0.4068
     48 H14        -5.7254   -4.4875   -7.8007 H         1 <0>         0.1167
     49 H15        -5.0265   -4.7226   -6.1807 H         1 <0>         0.0588
     50 H16        -5.4082   -3.0819   -6.7557 H         1 <0>         0.0574
     51 H17        -4.3815    1.4684    5.5734 H         1 <0>         0.1389
     52 H18        -1.9150    3.3987    5.7387 H         1 <0>         0.1135
     53 H19        -3.4389    3.4952    6.7731 H         1 <0>         0.1131
     54 H20        -2.9803    1.1657    7.6661 H         1 <0>         0.1130
     55 H21        -1.4564    1.0692    6.6316 H         1 <0>         0.1041
@<TRIPOS>BOND
     1    1    2 1
     2    1   35 1
     3    1   36 1
     4    1   37 1
     5    2    3 1
     6    2    4 1
     7    2   38 1
     8    3   39 1
     9    3   40 1
    10    3   41 1
    11    4    8 2
    12    4    5 1
    13    5    6 2
    14    5   27 1
    15    6    7 1
    16    6   42 1
    17    7   12 1
    18    7    8 1
    19    8    9 1
    20    9   10 2
    21    9   13 1
    22   10   11 1
    23   11   12 2
    24   11   43 1
    25   13   14 1
    26   13   44 1
    27   14   19 ar
    28   14   15 ar
    29   15   16 ar
    30   15   45 1
    31   16   17 ar
    32   16   22 1
    33   17   18 ar
    34   17   21 1
    35   18   19 ar
    36   18   46 1
    37   19   20 1
    38   22   23 2
    39   22   24 am
    40   24   25 1
    41   24   47 1
    42   25   26 1
    43   26   48 1
    44   26   49 1
    45   26   50 1
    46   27   31 1
    47   27   28 2
    48   28   29 1
    49   29   30 2
    50   30   31 1
    51   30   32 1
    52   32   34 1
    53   32   33 1
    54   32   51 1
    55   33   34 1
    56   33   52 1
    57   33   53 1
    58   34   54 1
    59   34   55 1
@<TRIPOS>MOLECULE
CHEMBL409538
   53    57     0     0     0
SMALL
USER_CHARGES

@<TRIPOS>ATOM
      1 C1         -0.6760    0.0853    1.8930 C.3       1 <0>         0.0148
      2 O1         -0.2795   -0.5751    0.6894 O.3       1 <0>        -0.2863
      3 C2         -1.1442   -0.5201   -0.3586 C.ar      1 <0>         0.1350
      4 C3         -2.3250    0.1516   -0.2257 C.ar      1 <0>        -0.1367
      5 C4         -3.2168    0.2087   -1.3072 C.ar      1 <0>        -0.0898
      6 C5         -4.4478    0.8951   -1.2068 C.ar      1 <0>         0.2827
      7 C6         -5.2755    0.9084   -2.3156 C.ar      1 <0>        -0.2642
      8 C7         -4.8807    0.2578   -3.4777 C.ar      1 <0>         0.2262
      9 N1         -3.7350   -0.3769   -3.5603 N.ar      1 <0>        -0.4813
     10 C8         -2.8860   -0.4302   -2.5271 C.ar      1 <0>         0.1818
     11 C9         -1.6635   -1.1139   -2.6328 C.ar      1 <0>        -0.2357
     12 C10        -0.8114   -1.1490   -1.5668 C.ar      1 <0>         0.2165
     13 O2          0.3726   -1.8067   -1.6764 O.3       1 <0>        -0.2774
     14 C11         0.6560   -2.4277   -2.9318 C.3       1 <0>         0.0116
     15 O3         -4.8072    1.5211   -0.0589 O.3       1 <0>        -0.2127
     16 C12        -5.9574    2.2445   -0.0600 C.ar      1 <0>         0.0439
     17 C13        -7.1885    1.5838   -0.0098 C.ar      1 <0>        -0.1311
     18 C14        -8.3570    2.2825   -0.0101 C.ar      1 <0>        -0.0871
     19 C15        -8.3303    3.6833   -0.0608 C.ar      1 <0>         0.0025
     20 C16        -7.0855    4.3570   -0.1113 C.ar      1 <0>        -0.0538
     21 C17        -5.8965    3.6087   -0.1046 C.ar      1 <0>        -0.0759
     22 C18        -7.0593    5.7618   -0.1617 C.ar      1 <0>        -0.0588
     23 C19        -8.2247    6.4682   -0.1615 C.ar      1 <0>        -0.1171
     24 C20        -9.4550    5.8255   -0.1124 C.ar      1 <0>        -0.0449
     25 C21        -9.5284    4.4409   -0.0621 C.ar      1 <0>        -0.1311
     26 C22       -10.8376    3.7652   -0.0101 C.2       1 <0>         0.5801
     27 O4        -10.8944    2.5607    0.1468 O.2       1 <0>        -0.4989
     28 N2        -11.9716    4.4825   -0.1366 N.am      1 <0>        -0.6266
     29 C23       -13.2096    3.8436   -0.0875 C.2       1 <0>         0.3236
     30 C24       -13.4244    2.4587    0.0945 C.2       1 <0>        -0.2878
     31 C25       -14.7507    2.2372    0.0841 C.2       1 <0>         0.0606
     32 O5        -15.3704    3.4143   -0.0951 O.3       1 <0>        -0.0632
     33 N3        -14.3791    4.4206   -0.1960 N.2       1 <0>        -0.3447
     34 H1          0.1020   -0.0355    2.6469 H         1 <0>         0.1188
     35 H2         -0.8264    1.1461    1.6928 H         1 <0>         0.0668
     36 H3         -1.6060   -0.3511    2.2574 H         1 <0>         0.0673
     37 H4         -2.5717    0.6364    0.7073 H         1 <0>         0.1726
     38 H5         -6.2247    1.4222   -2.2775 H         1 <0>         0.1850
     39 H6         -5.5349    0.2744   -4.3369 H         1 <0>         0.2124
     40 H7         -1.3965   -1.6065   -3.5560 H         1 <0>         0.1714
     41 H8         -0.1122   -3.1689   -3.1522 H         1 <0>         0.0695
     42 H9          0.6673   -1.6716   -3.7169 H         1 <0>         0.0694
     43 H10         1.6292   -2.9164   -2.8840 H         1 <0>         0.1217
     44 H11        -7.2129    0.5048    0.0294 H         1 <0>         0.1395
     45 H12        -9.3011    1.7595    0.0283 H         1 <0>         0.1827
     46 H13        -4.9398    4.1087   -0.1384 H         1 <0>         0.1477
     47 H14        -6.1136    6.2821   -0.2004 H         1 <0>         0.1437
     48 H15        -8.1911    7.5470   -0.1997 H         1 <0>         0.1456
     49 H16       -10.3637    6.4093   -0.1130 H         1 <0>         0.1383
     50 H17       -11.9263    5.4433   -0.2618 H         1 <0>         0.4232
     51 H18       -12.6572    1.7090    0.2196 H         1 <0>         0.1831
     52 H19       -15.2336    1.2782    0.1998 H         1 <0>         0.2194
     53 H20        -3.4976   -0.8183   -4.3908 H         1 <0>         0.4476
@<TRIPOS>BOND
     1    1    2 1
     2    1   34 1
     3    1   35 1
     4    1   36 1
     5    2    3 1
     6    3   12 ar
     7    3    4 ar
     8    4    5 ar
     9    4   37 1
    10    5   10 ar
    11    5    6 ar
    12    6    7 ar
    13    6   15 1
    14    7    8 ar
    15    7   38 1
    16    8    9 ar
    17    8   39 1
    18    9   10 ar
    19    9   53 1
    20   10   11 ar
    21   11   12 ar
    22   11   40 1
    23   12   13 1
    24   13   14 1
    25   14   41 1
    26   14   42 1
    27   14   43 1
    28   15   16 1
    29   16   21 ar
    30   16   17 ar
    31   17   18 ar
    32   17   44 1
    33   18   19 ar
    34   18   45 1
    35   19   25 ar
    36   19   20 ar
    37   20   21 ar
    38   20   22 ar
    39   21   46 1
    40   22   23 ar
    41   22   47 1
    42   23   24 ar
    43   23   48 1
    44   24   25 ar
    45   24   49 1
    46   25   26 1
    47   26   27 2
    48   26   28 am
    49   28   29 1
    50   28   50 1
    51   29   33 2
    52   29   30 1
    53   30   31 2
    54   30   51 1
    55   31   32 1
    56   31   52 1
    57   32   33 1
@<TRIPOS>MOLECULE
CHEMBL248976
   49    52     0     0     0
SMALL
USER_CHARGES

@<TRIPOS>ATOM
      1 C1         -0.0057    1.3925   -0.0534 C.ar      1 <0>        -0.1198
      2 C2          0.1490    0.2438    0.7016 C.ar      1 <0>        -0.1164
      3 C3          1.3512   -0.4339    0.6932 C.ar      1 <0>        -0.1122
      4 C4          2.4103    0.0408   -0.0782 C.ar      1 <0>        -0.0435
      5 C5          2.2487    1.1984   -0.8372 C.ar      1 <0>        -0.1127
      6 C6          1.0422    1.8683   -0.8209 C.ar      1 <0>        -0.1169
      7 C7          3.7051   -0.6830   -0.0909 C.ar      1 <0>        -0.0587
      8 C8          3.8634   -1.8437    0.6649 C.ar      1 <0>        -0.0893
      9 C9          5.0674   -2.5151    0.6512 C.ar      1 <0>        -0.1155
     10 C10         6.1232   -2.0352   -0.1149 C.ar      1 <0>         0.1471
     11 C11         5.9676   -0.8781   -0.8692 C.ar      1 <0>        -0.1407
     12 C12         4.7635   -0.2068   -0.8630 C.ar      1 <0>        -0.0893
     13 N1          7.3431   -2.7169   -0.1266 N.am      1 <0>        -0.6663
     14 C13         7.3658   -4.0598   -0.0145 C.2       1 <0>         0.5794
     15 O1          6.3235   -4.6863    0.0023 O.2       1 <0>        -0.5283
     16 C14         8.6537   -4.7692    0.0877 C.ar      1 <0>        -0.2747
     17 C15         9.8540   -4.0562    0.1905 C.ar      1 <0>         0.0071
     18 C16        11.0359   -4.7689    0.2845 C.ar      1 <0>        -0.2460
     19 C17        11.0002   -6.1522    0.2743 C.ar      1 <0>         0.1904
     20 N2          9.8593   -6.8058    0.1766 N.ar      1 <0>        -0.5470
     21 C18         8.6988   -6.1738    0.0895 C.ar      1 <0>         0.4593
     22 N3          7.5258   -6.8997   -0.0054 N.pl3     1 <0>        -0.6963
     23 C19         7.5751   -8.3592   -0.1227 C.3       1 <0>         0.1646
     24 C20         6.1726   -8.9037   -0.2098 C.ar      1 <0>        -0.0642
     25 C21         5.4738   -9.2515    0.9362 C.ar      1 <0>        -0.1532
     26 C22         4.1895   -9.7477    0.8173 C.ar      1 <0>         0.0988
     27 N4          3.6290   -9.8918   -0.3677 N.ar      1 <0>        -0.4791
     28 C23         4.2635   -9.5716   -1.4784 C.ar      1 <0>         0.0992
     29 C24         5.5482   -9.0635   -1.4374 C.ar      1 <0>        -0.1530
     30 H1         -0.9496    1.9174   -0.0471 H         1 <0>         0.1231
     31 H2         -0.6725   -0.1232    1.2990 H         1 <0>         0.1246
     32 H3          1.4711   -1.3303    1.2836 H         1 <0>         0.1250
     33 H4          3.0663    1.5709   -1.4365 H         1 <0>         0.1250
     34 H5          0.9158    2.7654   -1.4087 H         1 <0>         0.1245
     35 H6          3.0435   -2.2165    1.2609 H         1 <0>         0.1296
     36 H7          5.1904   -3.4143    1.2365 H         1 <0>         0.1366
     37 H8          6.7893   -0.5071   -1.4638 H         1 <0>         0.1289
     38 H9          4.6418    0.6900   -1.4524 H         1 <0>         0.1309
     39 H10         8.1735   -2.2236   -0.2152 H         1 <0>         0.4116
     40 H11         9.8573   -2.9762    0.1961 H         1 <0>         0.1352
     41 H12        11.9794   -4.2496    0.3648 H         1 <0>         0.1408
     42 H13        11.9241   -6.7067    0.3473 H         1 <0>         0.1638
     43 H14         6.6704   -6.4426    0.0058 H         1 <0>         0.4271
     44 H15         8.1276   -8.6330   -1.0216 H         1 <0>         0.0791
     45 H16         8.0736   -8.7774    0.7517 H         1 <0>         0.0819
     46 H17         5.9277   -9.1364    1.9094 H         1 <0>         0.1365
     47 H18         3.6385  -10.0209    1.7051 H         1 <0>         0.1585
     48 H19         3.7721   -9.7039   -2.4310 H         1 <0>         0.1584
     49 H20         6.0608   -8.7984   -2.3502 H         1 <0>         0.1360
@<TRIPOS>BOND
     1    1    6 ar
     2    1    2 ar
     3    1   30 1
     4    2    3 ar
     5    2   31 1
     6    3    4 ar
     7    3   32 1
     8    4    5 ar
     9    4    7 1
    10    5    6 ar
    11    5   33 1
    12    6   34 1
    13    7   12 ar
    14    7    8 ar
    15    8    9 ar
    16    8   35 1
    17    9   10 ar
    18    9   36 1
    19   10   11 ar
    20   10   13 1
    21   11   12 ar
    22   11   37 1
    23   12   38 1
    24   13   14 am
    25   13   39 1
    26   14   15 2
    27   14   16 1
    28   16   21 ar
    29   16   17 ar
    30   17   18 ar
    31   17   40 1
    32   18   19 ar
    33   18   41 1
    34   19   20 ar
    35   19   42 1
    36   20   21 ar
    37   21   22 1
    38   22   23 1
    39   22   43 1
    40   23   24 1
    41   23   44 1
    42   23   45 1
    43   24   29 ar
    44   24   25 ar
    45   25   26 ar
    46   25   46 1
    47   26   27 ar
    48   26   47 1
    49   27   28 ar
    50   28   29 ar
    51   28   48 1
    52   29   49 1
@<TRIPOS>MOLECULE
CHEMBL402792
   56    60     0     0     0
SMALL
USER_CHARGES

@<TRIPOS>ATOM
      1 C1          0.7409    0.0140    1.3766 C.3       1 <0>         0.0962
      2 N1         -0.1059   -0.2239    0.2050 N.pl3     1 <0>        -0.3650
      3 C2          0.0778   -1.1873   -0.7196 C.2       1 <0>         0.0910
      4 C3         -0.9240   -1.0706   -1.6418 C.2       1 <0>        -0.1781
      5 C4         -1.7392    0.0104   -1.2475 C.2       1 <0>         0.0850
      6 N2         -1.2483    0.5066   -0.1433 N.2       1 <0>        -0.2881
      7 C5         -1.1174   -1.9224   -2.8363 C.2       1 <0>         0.0022
      8 C6         -2.0878   -1.8456   -3.7821 C.2       1 <0>        -0.1636
      9 C7         -2.0995   -2.7581   -4.8540 C.ar      1 <0>         0.1707
     10 C8         -1.0569   -3.7101   -4.8474 C.ar      1 <0>        -0.2111
     11 S1         -0.1277   -3.2993   -3.3929 S.3       1 <0>         0.0872
     12 C9         -0.9386   -4.6697   -5.8355 C.ar      1 <0>         0.2134
     13 C10        -1.8881   -4.6765   -6.8561 C.ar      1 <0>        -0.2403
     14 C11        -2.8942   -3.7261   -6.8256 C.ar      1 <0>         0.1611
     15 N3         -2.9819   -2.8279   -5.8771 N.ar      1 <0>        -0.4809
     16 O1          0.0710   -5.5769   -5.8128 O.3       1 <0>        -0.2388
     17 C12         0.0695   -6.5576   -6.7550 C.ar      1 <0>         0.0543
     18 C13        -0.3630   -7.8337   -6.4268 C.ar      1 <0>        -0.0810
     19 C14        -0.3649   -8.8303   -7.3829 C.ar      1 <0>        -0.0633
     20 C15         0.0667   -8.5556   -8.6739 C.ar      1 <0>         0.1557
     21 C16         0.4999   -7.2783   -9.0037 C.ar      1 <0>        -0.1432
     22 C17         0.4959   -6.2794   -8.0477 C.ar      1 <0>         0.0970
     23 F1          0.9116   -5.0348   -8.3691 F         1 <0>        -0.1214
     24 N4          0.0654   -9.5667   -9.6429 N.pl3     1 <0>        -0.6250
     25 C18        -1.0109  -10.3660   -9.7814 C.2       1 <0>         0.5082
     26 S2         -2.3291  -10.2220   -8.6985 S.2       1 <0>        -0.4741
     27 N5         -1.0496  -11.2785  -10.7725 N.am      1 <0>        -0.6415
     28 C19        -2.1259  -12.0778  -10.9110 C.2       1 <0>         0.4828
     29 O2         -3.0594  -11.9758  -10.1441 O.2       1 <0>        -0.3889
     30 C20        -2.1691  -13.0981  -12.0192 C.3       1 <0>        -0.0933
     31 C21        -3.4702  -13.8557  -11.9540 C.ar      1 <0>        -0.0802
     32 C22        -3.5619  -15.0078  -11.1956 C.ar      1 <0>        -0.1013
     33 C23        -4.7554  -15.7028  -11.1357 C.ar      1 <0>        -0.1183
     34 C24        -5.8573  -15.2454  -11.8340 C.ar      1 <0>        -0.1130
     35 C25        -5.7658  -14.0928  -12.5917 C.ar      1 <0>        -0.1181
     36 C26        -4.5735  -13.3955  -12.6480 C.ar      1 <0>        -0.1012
     37 H1          0.3703   -0.5719    2.2177 H         1 <0>         0.0814
     38 H2          1.7652   -0.2823    1.1507 H         1 <0>         0.0925
     39 H3          0.7172    1.0731    1.6330 H         1 <0>         0.0951
     40 H4          0.8727   -1.9183   -0.7300 H         1 <0>         0.1825
     41 H5         -2.6184    0.3637   -1.7657 H         1 <0>         0.1932
     42 H6         -2.8511   -1.0848   -3.7121 H         1 <0>         0.1492
     43 H7         -1.8398   -5.4054   -7.6516 H         1 <0>         0.1466
     44 H8         -3.6332   -3.7250   -7.6132 H         1 <0>         0.1661
     45 H9         -0.6981   -8.0484   -5.4228 H         1 <0>         0.1525
     46 H10        -0.7019   -9.8238   -7.1264 H         1 <0>         0.1627
     47 H11         0.8360   -7.0642  -10.0075 H         1 <0>         0.1488
     48 H12         0.8391   -9.6918  -10.2143 H         1 <0>         0.4120
     49 H13        -0.3028  -11.3601  -11.3861 H         1 <0>         0.4125
     50 H14        -2.0908  -12.5927  -12.9817 H         1 <0>         0.1092
     51 H15        -1.3376  -13.7936  -11.9053 H         1 <0>         0.1092
     52 H16        -2.7010  -15.3652  -10.6501 H         1 <0>         0.1202
     53 H17        -4.8268  -16.6033  -10.5438 H         1 <0>         0.1238
     54 H18        -6.7895  -15.7888  -11.7878 H         1 <0>         0.1232
     55 H19        -6.6266  -13.7357  -13.1374 H         1 <0>         0.1238
     56 H20        -4.5031  -12.4930  -13.2370 H         1 <0>         0.1202
@<TRIPOS>BOND
     1    1    2 1
     2    1   37 1
     3    1   38 1
     4    1   39 1
     5    2    6 1
     6    2    3 1
     7    3    4 2
     8    3   40 1
     9    4    5 1
    10    4    7 1
    11    5    6 2
    12    5   41 1
    13    7   11 1
    14    7    8 2
    15    8    9 1
    16    8   42 1
    17    9   15 ar
    18    9   10 ar
    19   10   11 1
    20   10   12 ar
    21   12   13 ar
    22   12   16 1
    23   13   14 ar
    24   13   43 1
    25   14   15 ar
    26   14   44 1
    27   16   17 1
    28   17   22 ar
    29   17   18 ar
    30   18   19 ar
    31   18   45 1
    32   19   20 ar
    33   19   46 1
    34   20   21 ar
    35   20   24 1
    36   21   22 ar
    37   21   47 1
    38   22   23 1
    39   24   25 1
    40   24   48 1
    41   25   26 2
    42   25   27 1
    43   27   28 am
    44   27   49 1
    45   28   29 2
    46   28   30 1
    47   30   31 1
    48   30   50 1
    49   30   51 1
    50   31   36 ar
    51   31   32 ar
    52   32   33 ar
    53   32   52 1
    54   33   34 ar
    55   33   53 1
    56   34   35 ar
    57   34   54 1
    58   35   36 ar
    59   35   55 1
    60   36   56 1
@<TRIPOS>MOLECULE
CHEMBL258396
   55    59     0     0     0
SMALL
USER_CHARGES

@<TRIPOS>ATOM
      1 C1          0.7953   -1.0127   -1.3749 C.3       1 <0>         0.0923
      2 N1         -0.2173   -0.7008   -0.3632 N.pl3     1 <0>        -0.3686
      3 C2         -1.2623    0.1509   -0.4945 C.2       1 <0>         0.3506
      4 N2         -1.9309    0.1451    0.6430 N.2       1 <0>        -0.5139
      5 C3         -1.3479   -0.6846    1.5025 C.2       1 <0>         0.2081
      6 N3         -0.3027   -1.2296    0.9350 N.2       1 <0>        -0.3030
      7 C4         -1.5929    0.9426   -1.6929 C.2       1 <0>        -0.0711
      8 C5         -2.7500    1.5928   -1.9865 C.2       1 <0>        -0.0682
      9 C6         -2.8702    2.3017   -3.1957 C.ar      1 <0>         0.1489
     10 C7         -1.7305    2.2720   -4.0291 C.ar      1 <0>        -0.1970
     11 S1         -0.5702    1.2907   -3.1135 S.3       1 <0>         0.1219
     12 C8         -1.7011    2.9242   -5.2494 C.ar      1 <0>         0.2094
     13 C9         -2.8402    3.6224   -5.6434 C.ar      1 <0>        -0.2229
     14 C10        -3.9366    3.6264   -4.7964 C.ar      1 <0>         0.1615
     15 N4         -3.9373    3.0005   -3.6475 N.ar      1 <0>        -0.4659
     16 O1         -0.5965    2.8852   -6.0374 O.3       1 <0>        -0.2371
     17 C11        -0.6700    3.4582   -7.2687 C.ar      1 <0>         0.0502
     18 C12        -0.8410    2.6650   -8.3934 C.ar      1 <0>        -0.0797
     19 C13        -0.9157    3.2458   -9.6441 C.ar      1 <0>        -0.0634
     20 C14        -0.8198    4.6248   -9.7767 C.ar      1 <0>         0.1584
     21 C15        -0.6486    5.4200   -8.6515 C.ar      1 <0>        -0.1430
     22 C16        -0.5795    4.8384   -7.3990 C.ar      1 <0>         0.0977
     23 F1         -0.4189    5.6116   -6.3028 F         1 <0>        -0.1211
     24 N5         -0.8952    5.2134  -11.0453 N.pl3     1 <0>        -0.6258
     25 C17        -1.8557    4.8306  -11.9098 C.2       1 <0>         0.5083
     26 S2         -2.9109    3.5454  -11.5027 S.2       1 <0>        -0.4737
     27 N6         -1.9856    5.4596  -13.0946 N.am      1 <0>        -0.6412
     28 C18        -2.9461    5.0768  -13.9591 C.2       1 <0>         0.4829
     29 O2         -3.6935    4.1666  -13.6708 O.2       1 <0>        -0.3887
     30 C19        -3.0913    5.7802  -15.2840 C.3       1 <0>        -0.0932
     31 C20        -4.2300    5.1658  -16.0567 C.ar      1 <0>        -0.0805
     32 C21        -3.9942    4.0997  -16.9044 C.ar      1 <0>        -0.1013
     33 C22        -5.0387    3.5361  -17.6132 C.ar      1 <0>        -0.1182
     34 C23        -6.3190    4.0384  -17.4740 C.ar      1 <0>        -0.1128
     35 C24        -6.5549    5.1040  -16.6255 C.ar      1 <0>        -0.1181
     36 C25        -5.5112    5.6648  -15.9135 C.ar      1 <0>        -0.1013
     37 H1          0.4598   -1.8574   -1.9765 H         1 <0>         0.0915
     38 H2          0.9456   -0.1455   -2.0179 H         1 <0>         0.0871
     39 H3          1.7341   -1.2672   -0.8829 H         1 <0>         0.1050
     40 H4         -1.6866   -0.8815    2.5089 H         1 <0>         0.2269
     41 H5         -3.5766    1.5650   -1.2920 H         1 <0>         0.1645
     42 H6         -2.8679    4.1483   -6.5864 H         1 <0>         0.1513
     43 H7         -4.8230    4.1660   -5.0954 H         1 <0>         0.1715
     44 H8         -0.9153    1.5924   -8.2911 H         1 <0>         0.1531
     45 H9         -1.0485    2.6273  -10.5195 H         1 <0>         0.1634
     46 H10        -0.5739    6.4925   -8.7540 H         1 <0>         0.1496
     47 H11        -0.2560    5.8965  -11.3018 H         1 <0>         0.4125
     48 H12        -1.3877    6.1878  -13.3253 H         1 <0>         0.4128
     49 H13        -3.2963    6.8371  -15.1137 H         1 <0>         0.1093
     50 H14        -2.1678    5.6763  -15.8536 H         1 <0>         0.1094
     51 H15        -2.9939    3.7072  -17.0132 H         1 <0>         0.1202
     52 H16        -4.8544    2.7036  -18.2761 H         1 <0>         0.1238
     53 H17        -7.1349    3.5986  -18.0283 H         1 <0>         0.1233
     54 H18        -7.5551    5.4967  -16.5170 H         1 <0>         0.1239
     55 H19        -5.6961    6.4949  -15.2478 H         1 <0>         0.1202
@<TRIPOS>BOND
     1    1    2 1
     2    1   37 1
     3    1   38 1
     4    1   39 1
     5    2    6 1
     6    2    3 1
     7    3    4 2
     8    3    7 1
     9    4    5 1
    10    5    6 2
    11    5   40 1
    12    7   11 1
    13    7    8 2
    14    8    9 1
    15    8   41 1
    16    9   15 ar
    17    9   10 ar
    18   10   11 1
    19   10   12 ar
    20   12   13 ar
    21   12   16 1
    22   13   14 ar
    23   13   42 1
    24   14   15 ar
    25   14   43 1
    26   16   17 1
    27   17   22 ar
    28   17   18 ar
    29   18   19 ar
    30   18   44 1
    31   19   20 ar
    32   19   45 1
    33   20   21 ar
    34   20   24 1
    35   21   22 ar
    36   21   46 1
    37   22   23 1
    38   24   25 1
    39   24   47 1
    40   25   26 2
    41   25   27 1
    42   27   28 am
    43   27   48 1
    44   28   29 2
    45   28   30 1
    46   30   31 1
    47   30   49 1
    48   30   50 1
    49   31   36 ar
    50   31   32 ar
    51   32   33 ar
    52   32   51 1
    53   33   34 ar
    54   33   52 1
    55   34   35 ar
    56   34   53 1
    57   35   36 ar
    58   35   54 1
    59   36   55 1
@<TRIPOS>MOLECULE
CHEMBL378024
   77    82     0     0     0
SMALL
USER_CHARGES

@<TRIPOS>ATOM
      1 C1         -0.4615    2.0588   -1.5425 C.3       1 <0>        -0.1656
      2 C2         -0.3390    0.7213   -0.8097 C.3       1 <0>         0.1863
      3 C3          0.2462    0.9552    0.5844 C.3       1 <0>        -0.1664
      4 C4         -1.7228    0.0816   -0.6812 C.3       1 <0>        -0.1563
      5 N1          0.5431   -0.1709   -1.5662 N.am      1 <0>        -0.7342
      6 C5          1.8201    0.1876   -1.8051 C.2       1 <0>         0.7069
      7 O1          2.2402    1.2516   -1.3928 O.2       1 <0>        -0.5677
      8 N2          2.6316   -0.6332   -2.5010 N.am      1 <0>        -0.6852
      9 C6          3.9300   -0.2214   -2.8294 C.ar      1 <0>         0.1375
     10 C7          4.6541    0.5698   -1.9375 C.ar      1 <0>        -0.0591
     11 C8          5.9204    0.9803   -2.2394 C.ar      1 <0>        -0.1213
     12 C9          6.5047    0.6109   -3.4491 C.ar      1 <0>         0.1164
     13 C10         5.7824   -0.1866   -4.3544 C.ar      1 <0>        -0.1203
     14 C11         4.4897   -0.6055   -4.0324 C.ar      1 <0>        -0.0647
     15 C12         6.6609   -0.3965   -5.5117 C.2       1 <0>         0.1457
     16 N3          7.7875    0.2347   -5.2723 N.2       1 <0>        -0.2220
     17 N4          7.7272    0.8602   -4.0231 N.pl3     1 <0>        -0.4864
     18 H1          8.4371    1.3876   -3.6247 H         1 <0>         0.4483
     19 C13         6.3373   -1.1755   -6.7229 C.2       1 <0>         0.3768
     20 N5          7.1776   -1.3611   -7.7879 N.pl3     1 <0>        -0.5819
     21 H2          8.0773   -1.0102   -7.8795 H         1 <0>         0.4304
     22 C14         6.5032   -2.1437   -8.7090 C.ar      1 <0>         0.0170
     23 C15         6.8299   -2.6532   -9.9578 C.ar      1 <0>        -0.0589
     24 C16         5.9168   -3.4204  -10.6484 C.ar      1 <0>        -0.1604
     25 C17         4.6638   -3.6893  -10.1004 C.ar      1 <0>         0.2007
     26 C18         4.3226   -3.1892   -8.8582 C.ar      1 <0>        -0.1474
     27 C19         5.2417   -2.4096   -8.1482 C.ar      1 <0>         0.1004
     28 N6          5.2035   -1.7991   -6.9387 N.2       1 <0>        -0.4705
     29 N7          3.7461   -4.4696  -10.8122 N.pl3     1 <0>        -0.6356
     30 C20         2.3772   -4.6576  -10.3127 C.3       1 <0>         0.1272
     31 C21         1.3911   -4.2677  -11.4183 C.3       1 <0>        -0.1592
     32 C22         1.7122   -5.0622  -12.6863 C.3       1 <0>         0.0278
     33 C23         3.1273   -4.7216  -13.1591 C.3       1 <0>        -0.1597
     34 C24         4.1313   -5.1117  -12.0763 C.3       1 <0>         0.1280
     35 N8          0.7478   -4.7152  -13.7387 N.4       1 <0>        -0.3810
     36 C25        -0.6096   -5.0355  -13.2813 C.3       1 <0>        -0.0118
     37 C26        -1.6247   -4.6014  -14.3408 C.3       1 <0>        -0.1453
     38 C27        -1.3371   -5.3428  -15.6495 C.3       1 <0>        -0.1392
     39 C28         0.1058   -5.0607  -16.0781 C.3       1 <0>        -0.1453
     40 C29         1.0568   -5.4778  -14.9542 C.3       1 <0>        -0.0115
     41 H3          0.5244    2.5146   -1.6340 H         1 <0>         0.0807
     42 H4         -0.8784    1.8922   -2.5357 H         1 <0>         0.0520
     43 H5         -1.1177    2.7226   -0.9796 H         1 <0>         0.0644
     44 H6         -0.4100    1.6191    1.1472 H         1 <0>         0.0648
     45 H7          0.3335    0.0024    1.1064 H         1 <0>         0.0538
     46 H8          1.2322    1.4110    0.4928 H         1 <0>         0.0805
     47 H9         -2.1398   -0.0851   -1.6744 H         1 <0>         0.0615
     48 H10        -1.6356   -0.8713   -0.1592 H         1 <0>         0.0628
     49 H11        -2.3791    0.7454   -0.1184 H         1 <0>         0.0772
     50 H12         0.2080   -1.0197   -1.8951 H         1 <0>         0.3958
     51 H13         2.3168   -1.5089   -2.7745 H         1 <0>         0.4065
     52 H14         4.2078    0.8609   -0.9981 H         1 <0>         0.1529
     53 H15         6.4699    1.5927   -1.5399 H         1 <0>         0.1356
     54 H16         3.9302   -1.2218   -4.7206 H         1 <0>         0.1435
     55 H17         7.7990   -2.4483  -10.3884 H         1 <0>         0.1300
     56 H18         6.1736   -3.8153  -11.6203 H         1 <0>         0.1325
     57 H19         3.3504   -3.3992   -8.4374 H         1 <0>         0.1311
     58 H20         2.2275   -5.7026  -10.0415 H         1 <0>         0.0735
     59 H21         2.2166   -4.0248   -9.4399 H         1 <0>         0.1047
     60 H22         0.3747   -4.4930  -11.0954 H         1 <0>         0.0977
     61 H23         1.4796   -3.2011  -11.6251 H         1 <0>         0.0917
     62 H24         1.6477   -6.1291  -12.4724 H         1 <0>         0.1369
     63 H25         3.3467   -5.2701  -14.0751 H         1 <0>         0.0979
     64 H26         3.1994   -3.6508  -13.3495 H         1 <0>         0.0916
     65 H27         5.1276   -4.7784  -12.3668 H         1 <0>         0.1032
     66 H28         4.1278   -6.1946  -11.9521 H         1 <0>         0.0732
     67 H29        -0.6932   -6.1099  -13.1173 H         1 <0>         0.1280
     68 H30        -0.8117   -4.5096  -12.3481 H         1 <0>         0.1316
     69 H31        -2.6318   -4.8417  -14.0001 H         1 <0>         0.1118
     70 H32        -1.5421   -3.5270  -14.5054 H         1 <0>         0.0868
     71 H33        -1.4695   -6.4141  -15.4982 H         1 <0>         0.0816
     72 H34        -2.0217   -4.9954  -16.4233 H         1 <0>         0.0939
     73 H35         0.3357   -5.6293  -16.9792 H         1 <0>         0.1117
     74 H36         0.2243   -3.9959  -16.2787 H         1 <0>         0.0868
     75 H37         2.0850   -5.2784  -15.2561 H         1 <0>         0.1313
     76 H38         0.9376   -6.5427  -14.7545 H         1 <0>         0.1280
     77 H39         0.8093   -3.7279  -13.9375 H         1 <0>         0.4200
@<TRIPOS>BOND
     1    1    2 1
     2    1   41 1
     3    1   42 1
     4    1   43 1
     5    2    3 1
     6    2    4 1
     7    2    5 1
     8    3   44 1
     9    3   45 1
    10    3   46 1
    11    4   47 1
    12    4   48 1
    13    4   49 1
    14    5    6 am
    15    5   50 1
    16    6    7 2
    17    6    8 am
    18    8    9 1
    19    8   51 1
    20    9   14 ar
    21    9   10 ar
    22   10   11 ar
    23   10   52 1
    24   11   12 ar
    25   11   53 1
    26   12   17 1
    27   12   13 ar
    28   13   14 ar
    29   13   15 1
    30   14   54 1
    31   15   16 2
    32   15   19 1
    33   16   17 1
    34   17   18 1
    35   19   28 2
    36   19   20 1
    37   20   21 1
    38   20   22 1
    39   22   27 ar
    40   22   23 ar
    41   23   24 ar
    42   23   55 1
    43   24   25 ar
    44   24   56 1
    45   25   26 ar
    46   25   29 1
    47   26   27 ar
    48   26   57 1
    49   27   28 1
    50   29   34 1
    51   29   30 1
    52   30   31 1
    53   30   58 1
    54   30   59 1
    55   31   32 1
    56   31   60 1
    57   31   61 1
    58   32   33 1
    59   32   35 1
    60   32   62 1
    61   33   34 1
    62   33   63 1
    63   33   64 1
    64   34   65 1
    65   34   66 1
    66   35   40 1
    67   35   36 1
    68   35   77 1
    69   36   37 1
    70   36   67 1
    71   36   68 1
    72   37   38 1
    73   37   69 1
    74   37   70 1
    75   38   39 1
    76   38   71 1
    77   38   72 1
    78   39   40 1
    79   39   73 1
    80   39   74 1
    81   40   75 1
    82   40   76 1
@<TRIPOS>MOLECULE
CHEMBL378024__1
   77    82     0     0     0
SMALL
USER_CHARGES

@<TRIPOS>ATOM
      1 C1         -0.4985    2.1098   -1.6037 C.3       1 <0>        -0.1659
      2 C2         -0.3720    0.7800   -0.8577 C.3       1 <0>         0.1862
      3 C3          0.2094    1.0299    0.5353 C.3       1 <0>        -0.1659
      4 C4         -1.7534    0.1358   -0.7258 C.3       1 <0>        -0.1566
      5 N1          0.5154   -0.1158   -1.6036 N.am      1 <0>        -0.7339
      6 C5          1.7914    0.2457   -1.8434 C.2       1 <0>         0.7073
      7 O1          2.2062    1.3153   -1.4406 O.2       1 <0>        -0.5685
      8 N2          2.6077   -0.5784   -2.5296 N.am      1 <0>        -0.6855
      9 C6          3.9052   -0.1645   -2.8593 C.ar      1 <0>         0.1381
     10 C7          4.6240    0.6384   -1.9738 C.ar      1 <0>        -0.0585
     11 C8          5.8889    1.0521   -2.2775 C.ar      1 <0>        -0.1227
     12 C9          6.4773    0.6732   -3.4822 C.ar      1 <0>         0.1166
     13 C10         5.7604   -0.1364   -4.3810 C.ar      1 <0>        -0.1217
     14 C11         4.4689   -0.5580   -4.0574 C.ar      1 <0>        -0.0646
     15 C12         6.6422   -0.3539   -5.5344 C.2       1 <0>         0.1518
     16 N3          7.7655    0.2847   -5.2991 N.2       1 <0>        -0.2279
     17 N4          7.6998    0.9223   -4.0563 N.pl3     1 <0>        -0.4886
     18 H1          8.4066    1.4566   -3.6617 H         1 <0>         0.4473
     19 C13         6.3243   -1.1458   -6.7387 C.2       1 <0>         0.3542
     20 N5          5.1918   -1.7707   -6.9537 N.2       1 <0>        -0.4479
     21 C14         5.2376   -2.3969   -8.1558 C.ar      1 <0>         0.0107
     22 C15         4.3234   -3.1877   -8.8604 C.ar      1 <0>        -0.0074
     23 C16         4.6595   -3.6946  -10.0824 C.ar      1 <0>        -0.1872
     24 C17         5.9100   -3.4327  -10.6397 C.ar      1 <0>         0.2300
     25 C18         6.8296   -2.6524   -9.9579 C.ar      1 <0>        -0.1986
     26 C19         6.4999   -2.1305   -8.7155 C.ar      1 <0>         0.1064
     27 N6          7.1665   -1.3341   -7.8041 N.pl3     1 <0>        -0.5872
     28 N7          6.2380   -3.9602  -11.8922 N.pl3     1 <0>        -0.6325
     29 C20         7.5929   -3.8043  -12.4387 C.3       1 <0>         0.1262
     30 C21         8.1317   -5.1860  -12.8226 C.3       1 <0>        -0.1593
     31 C22         7.1450   -5.8677  -13.7734 C.3       1 <0>         0.0275
     32 C23         5.7995   -6.0528  -13.0682 C.3       1 <0>        -0.1598
     33 C24         5.2360   -4.6862  -12.6844 C.3       1 <0>         0.1262
     34 N8          7.6743   -7.1794  -14.1699 N.4       1 <0>        -0.3809
     35 C25         8.9682   -7.0011  -14.8397 C.3       1 <0>        -0.0119
     36 C26         9.5621   -8.3691  -15.1825 C.3       1 <0>        -0.1453
     37 C27         8.6029   -9.1173  -16.1127 C.3       1 <0>        -0.1393
     38 C28         7.2349   -9.2321  -15.4340 C.3       1 <0>        -0.1453
     39 C29         6.7273   -7.8322  -15.0818 C.3       1 <0>        -0.0117
     40 H2          0.4857    2.5688   -1.6976 H         1 <0>         0.0805
     41 H3         -0.9126    1.9318   -2.5961 H         1 <0>         0.0529
     42 H4         -1.1587    2.7763   -1.0487 H         1 <0>         0.0643
     43 H5         -0.4508    1.6964    1.0903 H         1 <0>         0.0646
     44 H6          0.2995    0.0825    1.0667 H         1 <0>         0.0535
     45 H7          1.1936    1.4888    0.4413 H         1 <0>         0.0802
     46 H8         -2.1676   -0.0423   -1.7182 H         1 <0>         0.0624
     47 H9         -1.6633   -0.8116   -0.1944 H         1 <0>         0.0626
     48 H10        -2.4136    0.8023   -0.1708 H         1 <0>         0.0770
     49 H11         0.1845   -0.9692   -1.9250 H         1 <0>         0.3964
     50 H12         2.2971   -1.4581   -2.7952 H         1 <0>         0.4070
     51 H13         4.1748    0.9363   -1.0379 H         1 <0>         0.1528
     52 H14         6.4341    1.6741   -1.5831 H         1 <0>         0.1350
     53 H15         3.9135   -1.1833   -4.7407 H         1 <0>         0.1440
     54 H16         3.3520   -3.3972   -8.4373 H         1 <0>         0.1372
     55 H17         3.9502   -4.3044  -10.6223 H         1 <0>         0.1322
     56 H18         7.7982   -2.4514  -10.3914 H         1 <0>         0.1246
     57 H19         7.5595   -3.1667  -13.3221 H         1 <0>         0.0746
     58 H20         8.2411   -3.3556  -11.6859 H         1 <0>         0.1026
     59 H21         9.0966   -5.0756  -13.3175 H         1 <0>         0.0981
     60 H22         8.2500   -5.7927  -11.9248 H         1 <0>         0.0920
     61 H23         7.0083   -5.2484  -14.6599 H         1 <0>         0.1372
     62 H24         5.1044   -6.5593  -13.7379 H         1 <0>         0.0993
     63 H25         5.9398   -6.6513  -12.1681 H         1 <0>         0.0924
     64 H26         4.3296   -4.8192  -12.0937 H         1 <0>         0.1062
     65 H27         5.0061   -4.1221  -13.5883 H         1 <0>         0.0748
     66 H28         8.8268   -6.4271  -15.7554 H         1 <0>         0.1282
     67 H29         9.6488   -6.4657  -14.1777 H         1 <0>         0.1310
     68 H30        10.5219   -8.2345  -15.6813 H         1 <0>         0.1119
     69 H31         9.7042   -8.9439  -14.2674 H         1 <0>         0.0869
     70 H32         8.5004   -8.5682  -17.0487 H         1 <0>         0.0817
     71 H33         8.9944  -10.1143  -16.3146 H         1 <0>         0.0941
     72 H34         6.5312   -9.7144  -16.1124 H         1 <0>         0.1122
     73 H35         7.3287   -9.8249  -14.5240 H         1 <0>         0.0870
     74 H36         5.7534   -7.9103  -14.5985 H         1 <0>         0.1317
     75 H37         6.6336   -7.2404  -15.9923 H         1 <0>         0.1282
     76 H38         7.7989   -7.7528  -13.3491 H         1 <0>         0.4200
     77 H39         8.0633   -0.9769   -7.8992 H         1 <0>         0.4289
@<TRIPOS>BOND
     1    1    2 1
     2    1   40 1
     3    1   41 1
     4    1   42 1
     5    2    3 1
     6    2    4 1
     7    2    5 1
     8    3   43 1
     9    3   44 1
    10    3   45 1
    11    4   46 1
    12    4   47 1
    13    4   48 1
    14    5    6 am
    15    5   49 1
    16    6    7 2
    17    6    8 am
    18    8    9 1
    19    8   50 1
    20    9   14 ar
    21    9   10 ar
    22   10   11 ar
    23   10   51 1
    24   11   12 ar
    25   11   52 1
    26   12   17 1
    27   12   13 ar
    28   13   14 ar
    29   13   15 1
    30   14   53 1
    31   15   16 2
    32   15   19 1
    33   16   17 1
    34   17   18 1
    35   19   27 1
    36   19   20 2
    37   20   21 1
    38   21   26 ar
    39   21   22 ar
    40   22   23 ar
    41   22   54 1
    42   23   24 ar
    43   23   55 1
    44   24   25 ar
    45   24   28 1
    46   25   26 ar
    47   25   56 1
    48   26   27 1
    49   27   77 1
    50   28   33 1
    51   28   29 1
    52   29   30 1
    53   29   57 1
    54   29   58 1
    55   30   31 1
    56   30   59 1
    57   30   60 1
    58   31   32 1
    59   31   34 1
    60   31   61 1
    61   32   33 1
    62   32   62 1
    63   32   63 1
    64   33   64 1
    65   33   65 1
    66   34   39 1
    67   34   35 1
    68   34   76 1
    69   35   36 1
    70   35   66 1
    71   35   67 1
    72   36   37 1
    73   36   68 1
    74   36   69 1
    75   37   38 1
    76   37   70 1
    77   37   71 1
    78   38   39 1
    79   38   72 1
    80   38   73 1
    81   39   74 1
    82   39   75 1
@<TRIPOS>MOLECULE
CHEMBL381817
   34    36     0     0     0
SMALL
USER_CHARGES

@<TRIPOS>ATOM
      1 C1         -0.0164    1.3872    0.0098 C.ar      1 <0>        -0.3301
      2 C2          1.1997    2.0630   -0.0017 C.ar      1 <0>         0.4493
      3 N1          2.3300    1.3593   -0.0229 N.ar      1 <0>        -0.5363
      4 C3          2.3064    0.0421   -0.0330 C.ar      1 <0>         0.3827
      5 N2          1.1760   -0.6343   -0.0231 N.ar      1 <0>        -0.5896
      6 C4          0.0028   -0.0043   -0.0014 C.ar      1 <0>         0.4755
      7 N3         -1.1819   -0.7241    0.0098 N.pl3     1 <0>        -0.6124
      8 C5         -1.2954   -2.1905    0.1107 C.3       1 <0>         0.1184
      9 C6         -2.7081   -2.4396    0.6955 C.3       1 <0>        -0.1525
     10 C7         -3.5336   -1.3240    0.0016 C.3       1 <0>         0.0114
     11 C8         -2.5335   -0.1511   -0.0706 C.3       1 <0>         0.1033
     12 N4         -4.7006   -0.9586    0.8155 N.4       1 <0>        -0.6294
     13 N5          1.2343    3.4511    0.0084 N.pl3     1 <0>        -0.5900
     14 C9          2.4445    4.1115    0.1047 C.2       1 <0>         0.2841
     15 N6          3.6593    3.5947    0.1015 N.2       1 <0>        -0.5132
     16 C10         4.7250    4.3513    0.2011 C.2       1 <0>         0.1565
     17 C11         4.5033    5.7164    0.3093 C.2       1 <0>        -0.1966
     18 S1          2.7193    5.7657    0.2464 S.3       1 <0>         0.2067
     19 C12         5.4442    6.7890    0.4315 C.1       1 <0>         0.2951
     20 N7          6.1905    7.6399    0.5285 N.1       1 <0>        -0.3853
     21 H1         -0.9508    1.9284    0.0315 H         1 <0>         0.1385
     22 H2          3.2410   -0.4989   -0.0502 H         1 <0>         0.2073
     23 H3         -1.2072   -2.6465   -0.8754 H         1 <0>         0.0841
     24 H4         -0.5322   -2.5848    0.7816 H         1 <0>         0.1026
     25 H5         -3.0766   -3.4275    0.4192 H         1 <0>         0.1185
     26 H6         -2.7109   -2.3119    1.7779 H         1 <0>         0.1009
     27 H7         -3.8407   -1.6358   -0.9967 H         1 <0>         0.1648
     28 H8         -2.6975    0.5303    0.7643 H         1 <0>         0.0843
     29 H9         -2.6555    0.3800   -1.0146 H         1 <0>         0.0995
     30 H10        -4.3925   -0.6458    1.7240 H         1 <0>         0.4359
     31 H11        -5.2098   -0.2166    0.3592 H         1 <0>         0.4402
     32 H12         0.4091    3.9573   -0.0522 H         1 <0>         0.4399
     33 H13         5.7214    3.9346    0.1995 H         1 <0>         0.1926
     34 H14        -5.3011   -1.7623    0.9224 H         1 <0>         0.4437
@<TRIPOS>BOND
     1    1    6 ar
     2    1    2 ar
     3    1   21 1
     4    2    3 ar
     5    2   13 1
     6    3    4 ar
     7    4    5 ar
     8    4   22 1
     9    5    6 ar
    10    6    7 1
    11    7   11 1
    12    7    8 1
    13    8    9 1
    14    8   23 1
    15    8   24 1
    16    9   10 1
    17    9   25 1
    18    9   26 1
    19   10   11 1
    20   10   12 1
    21   10   27 1
    22   11   28 1
    23   11   29 1
    24   12   30 1
    25   12   31 1
    26   12   34 1
    27   13   14 1
    28   13   32 1
    29   14   18 1
    30   14   15 2
    31   15   16 1
    32   16   17 2
    33   16   33 1
    34   17   18 1
    35   17   19 1
    36   19   20 3
@<TRIPOS>MOLECULE
CHEMBL381817__1
   34    36     0     0     0
SMALL
USER_CHARGES

@<TRIPOS>ATOM
      1 C1         -0.0164    1.3872    0.0098 C.ar      1 <0>        -0.3300
      2 C2          1.1997    2.0630   -0.0017 C.ar      1 <0>         0.4493
      3 N1          2.3300    1.3593   -0.0229 N.ar      1 <0>        -0.5361
      4 C3          2.3064    0.0421   -0.0330 C.ar      1 <0>         0.3826
      5 N2          1.1760   -0.6343   -0.0231 N.ar      1 <0>        -0.5891
      6 C4          0.0028   -0.0043   -0.0014 C.ar      1 <0>         0.4757
      7 N3         -1.1819   -0.7241    0.0098 N.pl3     1 <0>        -0.6101
      8 C5         -1.2951   -2.1865    0.1104 C.3       1 <0>         0.1185
      9 C6         -2.7995   -2.5306    0.1122 C.3       1 <0>        -0.1482
     10 C7         -3.4582   -1.2068    0.5825 C.3       1 <0>         0.0052
     11 C8         -2.5372   -0.1495   -0.0708 C.3       1 <0>         0.1045
     12 N4         -4.8332   -1.0946    0.0780 N.4       1 <0>        -0.6271
     13 N5          1.2343    3.4511    0.0084 N.pl3     1 <0>        -0.5900
     14 C9          2.4445    4.1115    0.1047 C.2       1 <0>         0.2841
     15 N6          3.6593    3.5947    0.1015 N.2       1 <0>        -0.5133
     16 C10         4.7250    4.3513    0.2011 C.2       1 <0>         0.1565
     17 C11         4.5033    5.7164    0.3093 C.2       1 <0>        -0.1968
     18 S1          2.7193    5.7657    0.2464 S.3       1 <0>         0.2068
     19 C12         5.4442    6.7890    0.4315 C.1       1 <0>         0.2952
     20 N7          6.1905    7.6399    0.5285 N.1       1 <0>        -0.3854
     21 H1         -0.9508    1.9284    0.0315 H         1 <0>         0.1393
     22 H2          3.2410   -0.4989   -0.0502 H         1 <0>         0.2073
     23 H3         -0.8085   -2.6557   -0.7447 H         1 <0>         0.0899
     24 H4         -0.8349   -2.5311    1.0364 H         1 <0>         0.0861
     25 H5         -3.1361   -2.7938   -0.8906 H         1 <0>         0.1018
     26 H6         -3.0098   -3.3369    0.8148 H         1 <0>         0.1161
     27 H7         -3.4343   -1.1230    1.6690 H         1 <0>         0.1624
     28 H8         -2.5848    0.7889    0.4816 H         1 <0>         0.1039
     29 H9         -2.8216    0.0070   -1.1113 H         1 <0>         0.0875
     30 H10        -5.3877   -1.8555    0.4407 H         1 <0>         0.4439
     31 H11        -5.2306   -0.2166    0.3768 H         1 <0>         0.4407
     32 H12         0.4091    3.9573   -0.0522 H         1 <0>         0.4399
     33 H13         5.7214    3.9346    0.1995 H         1 <0>         0.1926
     34 H14        -4.8259   -1.1346   -0.9302 H         1 <0>         0.4362
@<TRIPOS>BOND
     1    1    6 ar
     2    1    2 ar
     3    1   21 1
     4    2    3 ar
     5    2   13 1
     6    3    4 ar
     7    4    5 ar
     8    4   22 1
     9    5    6 ar
    10    6    7 1
    11    7   11 1
    12    7    8 1
    13    8    9 1
    14    8   23 1
    15    8   24 1
    16    9   10 1
    17    9   25 1
    18    9   26 1
    19   10   11 1
    20   10   12 1
    21   10   27 1
    22   11   28 1
    23   11   29 1
    24   12   30 1
    25   12   31 1
    26   12   34 1
    27   13   14 1
    28   13   32 1
    29   14   18 1
    30   14   15 2
    31   15   16 1
    32   16   17 2
    33   16   33 1
    34   17   18 1
    35   17   19 1
    36   19   20 3
@<TRIPOS>MOLECULE
CHEMBL255744
   48    51     0     0     0
SMALL
USER_CHARGES

@<TRIPOS>ATOM
      1 C1          1.2022   -2.1985   -2.3365 C.3       1 <0>        -0.1151
      2 C2          1.7525   -2.0983   -0.9372 C.ar      1 <0>        -0.0616
      3 C3          2.9902   -1.5207   -0.7214 C.ar      1 <0>        -0.1356
      4 C4          3.4987   -1.4269    0.5611 C.ar      1 <0>        -0.0611
      5 C5          2.7711   -1.9102    1.6310 C.ar      1 <0>        -0.1261
      6 C6          1.5276   -2.4904    1.4177 C.ar      1 <0>         0.1672
      7 C7          1.0175   -2.5784    0.1291 C.ar      1 <0>        -0.1529
      8 N1          0.7880   -2.9811    2.4996 N.am      1 <0>        -0.6800
      9 C8          0.8684   -2.3754    3.7009 C.2       1 <0>         0.7038
     10 O1          1.5084   -1.3488    3.8225 O.2       1 <0>        -0.5486
     11 N2          0.2394   -2.9077    4.7674 N.am      1 <0>        -0.6818
     12 C9          0.2318   -2.2250    5.9866 C.ar      1 <0>         0.1760
     13 C10         0.2059   -0.8351    6.0034 C.ar      1 <0>        -0.1146
     14 C11         0.1989   -0.1593    7.2043 C.ar      1 <0>        -0.0709
     15 C12         0.2173   -0.8713    8.4042 C.ar      1 <0>        -0.0763
     16 C13         0.2428   -2.2663    8.3844 C.ar      1 <0>        -0.0928
     17 C14         0.2445   -2.9370    7.1806 C.ar      1 <0>        -0.1436
     18 C15         0.2103   -0.1478    9.6962 C.ar      1 <0>         0.0861
     19 C16         1.1036    0.8938    9.9429 C.ar      1 <0>        -0.2153
     20 C17         1.0646    1.5453   11.1634 C.ar      1 <0>         0.1802
     21 N3          0.2050    1.2075   12.1010 N.ar      1 <0>        -0.5121
     22 C18        -0.6718    0.2248   11.9289 C.ar      1 <0>         0.3409
     23 C19        -0.7033   -0.4856   10.7141 C.ar      1 <0>        -0.2348
     24 C20        -1.7666   -1.4788   10.8408 C.2       1 <0>         0.3734
     25 N4         -2.2970   -1.3384   12.0275 N.2       1 <0>        -0.3073
     26 N5         -1.6487   -0.3128   12.7224 N.pl3     1 <0>        -0.4900
     27 H1         -1.8641   -0.0214   13.6222 H         1 <0>         0.4457
     28 N6         -2.1480   -2.4091    9.8703 N.pl3     1 <0>        -0.8343
     29 C21         4.8482   -0.7971    0.7916 C.3       1 <0>        -0.1153
     30 H2          0.6258   -1.3021   -2.5653 H         1 <0>         0.0723
     31 H3          2.0255   -2.2918   -3.0448 H         1 <0>         0.0688
     32 H4          0.5574   -3.0741   -2.4116 H         1 <0>         0.0667
     33 H5          3.5612   -1.1424   -1.5564 H         1 <0>         0.1235
     34 H6          3.1691   -1.8373    2.6324 H         1 <0>         0.1357
     35 H7          0.0489   -3.0253   -0.0396 H         1 <0>         0.1244
     36 H8          0.2175   -3.7571    2.3849 H         1 <0>         0.4090
     37 H9         -0.2080   -3.7647    4.6887 H         1 <0>         0.4105
     38 H10         0.1916   -0.2846    5.0744 H         1 <0>         0.1426
     39 H11         0.1794    0.9205    7.2167 H         1 <0>         0.1337
     40 H12         0.2572   -2.8198    9.3116 H         1 <0>         0.1347
     41 H13         0.2598   -4.0168    7.1647 H         1 <0>         0.1338
     42 H14         1.8189    1.1890    9.1895 H         1 <0>         0.1447
     43 H15         1.7580    2.3518   11.3514 H         1 <0>         0.1692
     44 H16        -1.6901   -2.4336    9.0155 H         1 <0>         0.4121
     45 H17        -2.8705   -3.0304   10.0514 H         1 <0>         0.4067
     46 H18         4.7261    0.2733    0.9574 H         1 <0>         0.0733
     47 H19         5.3155   -1.2493    1.6664 H         1 <0>         0.0669
     48 H20         5.4791   -0.9598   -0.0822 H         1 <0>         0.0680
@<TRIPOS>BOND
     1    1    2 1
     2    1   30 1
     3    1   31 1
     4    1   32 1
     5    2    7 ar
     6    2    3 ar
     7    3    4 ar
     8    3   33 1
     9    4    5 ar
    10    4   29 1
    11    5    6 ar
    12    5   34 1
    13    6    7 ar
    14    6    8 1
    15    7   35 1
    16    8    9 am
    17    8   36 1
    18    9   10 2
    19    9   11 am
    20   11   12 1
    21   11   37 1
    22   12   17 ar
    23   12   13 ar
    24   13   14 ar
    25   13   38 1
    26   14   15 ar
    27   14   39 1
    28   15   16 ar
    29   15   18 1
    30   16   17 ar
    31   16   40 1
    32   17   41 1
    33   18   23 ar
    34   18   19 ar
    35   19   20 ar
    36   19   42 1
    37   20   21 ar
    38   20   43 1
    39   21   22 ar
    40   22   26 1
    41   22   23 ar
    42   23   24 1
    43   24   25 2
    44   24   28 1
    45   25   26 1
    46   26   27 1
    47   28   44 1
    48   28   45 1
    49   29   46 1
    50   29   47 1
    51   29   48 1
@<TRIPOS>MOLECULE
CHEMBL255744__1
   48    51     0     0     0
SMALL
USER_CHARGES

@<TRIPOS>ATOM
      1 C1          0.5345   -2.4823   -2.2706 C.3       1 <0>        -0.1153
      2 C2          1.1656   -2.3037   -0.9138 C.ar      1 <0>        -0.0613
      3 C3          2.3567   -1.6120   -0.7917 C.ar      1 <0>        -0.1353
      4 C4          2.9388   -1.4456    0.4515 C.ar      1 <0>        -0.0614
      5 C5          2.3317   -1.9702    1.5757 C.ar      1 <0>        -0.1258
      6 C6          1.1355   -2.6654    1.4565 C.ar      1 <0>         0.1671
      7 C7          0.5508   -2.8263    0.2071 C.ar      1 <0>        -0.1525
      8 N1          0.5181   -3.1986    2.5934 N.am      1 <0>        -0.6803
      9 C8          0.6158   -2.5590    3.7758 C.2       1 <0>         0.7036
     10 O1          1.1601   -1.4735    3.8366 O.2       1 <0>        -0.5493
     11 N2          0.1100   -3.1227    4.8906 N.am      1 <0>        -0.6818
     12 C9          0.1167   -2.4158    6.0954 C.ar      1 <0>         0.1730
     13 C10        -0.0432   -1.0346    6.0904 C.ar      1 <0>        -0.1150
     14 C11        -0.0370   -0.3347    7.2771 C.ar      1 <0>        -0.0720
     15 C12         0.1300   -1.0136    8.4853 C.ar      1 <0>        -0.0782
     16 C13         0.2903   -2.4002    8.4873 C.ar      1 <0>        -0.0907
     17 C14         0.2776   -3.0954    7.2978 C.ar      1 <0>        -0.1452
     18 C15         0.1376   -0.2646    9.7616 C.ar      1 <0>         0.1044
     19 C16        -0.9295    0.5470   10.1237 C.ar      1 <0>        -0.2372
     20 C17        -0.9055    1.2427   11.3253 C.ar      1 <0>         0.2049
     21 N3          0.0993    1.1743   12.1637 N.ar      1 <0>        -0.4893
     22 C18         1.1793    0.4173   11.9076 C.ar      1 <0>         0.3052
     23 C19         1.2311   -0.3564   10.6578 C.ar      1 <0>        -0.3057
     24 C20         2.4420   -1.0382   10.6645 C.2       1 <0>         0.4201
     25 N4          3.0778   -0.7251   11.8061 N.pl3     1 <0>        -0.4535
     26 N5          2.3034    0.1688   12.5533 N.2       1 <0>        -0.3050
     27 H1          3.9480   -1.0631   12.0697 H         1 <0>         0.4434
     28 N6          2.9088   -1.8865    9.6742 N.pl3     1 <0>        -0.8372
     29 C21         4.2372   -0.6914    0.5799 C.3       1 <0>        -0.1152
     30 H2         -0.1358   -1.6468   -2.4723 H         1 <0>         0.0726
     31 H3          1.3136   -2.5152   -3.0322 H         1 <0>         0.0689
     32 H4         -0.0308   -3.4141   -2.2886 H         1 <0>         0.0668
     33 H5          2.8336   -1.2011   -1.6693 H         1 <0>         0.1237
     34 H6          2.7870   -1.8402    2.5463 H         1 <0>         0.1347
     35 H7         -0.3817   -3.3626    0.1117 H         1 <0>         0.1246
     36 H8          0.0199   -4.0285    2.5306 H         1 <0>         0.4090
     37 H9         -0.2586   -4.0193    4.8564 H         1 <0>         0.4103
     38 H10        -0.1720   -0.5098    5.1553 H         1 <0>         0.1417
     39 H11        -0.1609    0.7382    7.2726 H         1 <0>         0.1338
     40 H12         0.4196   -2.9281    9.4205 H         1 <0>         0.1310
     41 H13         0.3967   -4.1688    7.2990 H         1 <0>         0.1315
     42 H14        -1.7822    0.6380    9.4672 H         1 <0>         0.1373
     43 H15        -1.7499    1.8663   11.5793 H         1 <0>         0.1644
     44 H16         2.4339   -1.9555    8.8312 H         1 <0>         0.4217
     45 H17         3.7106   -2.4116    9.8236 H         1 <0>         0.4057
     46 H18         4.0287    0.3667    0.7377 H         1 <0>         0.0733
     47 H19         4.8014   -1.0809    1.4273 H         1 <0>         0.0664
     48 H20         4.8207   -0.8146   -0.3325 H         1 <0>         0.0681
@<TRIPOS>BOND
     1    1    2 1
     2    1   30 1
     3    1   31 1
     4    1   32 1
     5    2    7 ar
     6    2    3 ar
     7    3    4 ar
     8    3   33 1
     9    4    5 ar
    10    4   29 1
    11    5    6 ar
    12    5   34 1
    13    6    7 ar
    14    6    8 1
    15    7   35 1
    16    8    9 am
    17    8   36 1
    18    9   10 2
    19    9   11 am
    20   11   12 1
    21   11   37 1
    22   12   17 ar
    23   12   13 ar
    24   13   14 ar
    25   13   38 1
    26   14   15 ar
    27   14   39 1
    28   15   16 ar
    29   15   18 1
    30   16   17 ar
    31   16   40 1
    32   17   41 1
    33   18   23 ar
    34   18   19 ar
    35   19   20 ar
    36   19   42 1
    37   20   21 ar
    38   20   43 1
    39   21   22 ar
    40   22   23 ar
    41   22   26 2
    42   23   24 2
    43   24   28 1
    44   24   25 1
    45   25   27 1
    46   25   26 1
    47   28   44 1
    48   28   45 1
    49   29   46 1
    50   29   47 1
    51   29   48 1
@<TRIPOS>MOLECULE
CHEMBL238737
   46    48     0     0     0
SMALL
USER_CHARGES

@<TRIPOS>ATOM
      1 C1          2.9387   -0.5926    1.5254 C.3       1 <0>        -0.1377
      2 C2          1.7207   -1.2173    0.8951 C.ar      1 <0>        -0.0095
      3 C3          1.8211   -1.8342   -0.3367 C.ar      1 <0>        -0.1520
      4 C4          0.6983   -2.4100   -0.9167 C.ar      1 <0>         0.1845
      5 C5         -0.5225   -2.3634   -0.2555 C.ar      1 <0>        -0.1314
      6 C6         -0.6160   -1.7452    0.9756 C.ar      1 <0>        -0.0466
      7 C7          0.5053   -1.1773    1.5529 C.ar      1 <0>        -0.2047
      8 C8          0.4009   -0.5088    2.8995 C.3       1 <0>         0.5114
      9 F1         -0.9167   -0.5947    3.3619 F         1 <0>        -0.1766
     10 F2          1.2553   -1.1475    3.8047 F         1 <0>        -0.1756
     11 F3          0.7671    0.8363    2.7821 F         1 <0>        -0.1757
     12 N1          0.7963   -3.0350   -2.1639 N.am      1 <0>        -0.6745
     13 C9          0.0382   -4.1151   -2.4378 C.2       1 <0>         0.6103
     14 O1         -0.7936   -4.4952   -1.6333 O.2       1 <0>        -0.5123
     15 C10         0.2088   -4.8080   -3.6606 C.2       1 <0>        -0.1961
     16 C11         0.2576   -6.1828   -3.8429 C.2       1 <0>         0.3863
     17 N2          0.4298   -6.4067   -5.1511 N.2       1 <0>        -0.5319
     18 C12         0.4910   -5.2693   -5.7927 C.2       1 <0>         0.2621
     19 N3          0.3554   -4.2512   -4.9245 N.pl3     1 <0>        -0.4453
     20 C13         0.3637   -2.8229   -5.2504 C.3       1 <0>         0.0663
     21 N4          0.1482   -7.1476   -2.8513 N.pl3     1 <0>        -0.7028
     22 C14         0.2194   -8.5685   -3.2009 C.3       1 <0>         0.1775
     23 C15         0.0746   -9.4008   -1.9529 C.ar      1 <0>        -0.0656
     24 C16         1.1871   -9.7660   -1.2104 C.ar      1 <0>        -0.1543
     25 C17         1.0155  -10.5298   -0.0715 C.ar      1 <0>         0.0980
     26 N5         -0.1879  -10.9106    0.3103 N.ar      1 <0>        -0.4794
     27 C18        -1.2680  -10.5819   -0.3711 C.ar      1 <0>         0.0990
     28 C19        -1.1747   -9.8146   -1.5168 C.ar      1 <0>        -0.1515
     29 H1          3.4519   -1.3344    2.1374 H         1 <0>         0.0848
     30 H2          3.6109   -0.2383    0.7440 H         1 <0>         0.0791
     31 H3          2.6342    0.2465    2.1508 H         1 <0>         0.0784
     32 H4          2.7716   -1.8685   -0.8484 H         1 <0>         0.1369
     33 H5         -1.3976   -2.8100   -0.7040 H         1 <0>         0.1520
     34 H6         -1.5648   -1.7086    1.4902 H         1 <0>         0.1428
     35 H7          1.4099   -2.6911   -2.8318 H         1 <0>         0.4100
     36 H8          0.6263   -5.1633   -6.8589 H         1 <0>         0.2170
     37 H9          1.3786   -2.4356   -5.1607 H         1 <0>         0.0816
     38 H10         0.0096   -2.6811   -6.2715 H         1 <0>         0.0996
     39 H11        -0.2910   -2.2892   -4.5615 H         1 <0>         0.0851
     40 H12         0.0246   -6.8812   -1.9269 H         1 <0>         0.4152
     41 H13        -0.5843   -8.8125   -3.8956 H         1 <0>         0.0773
     42 H14         1.1809   -8.7798   -3.6690 H         1 <0>         0.0769
     43 H15         2.1754   -9.4578   -1.5183 H         1 <0>         0.1365
     44 H16         1.8770  -10.8185    0.5124 H         1 <0>         0.1582
     45 H17        -2.2370  -10.9126   -0.0276 H         1 <0>         0.1588
     46 H18        -2.0634   -9.5444   -2.0678 H         1 <0>         0.1377
@<TRIPOS>BOND
     1    1    2 1
     2    1   29 1
     3    1   30 1
     4    1   31 1
     5    2    7 ar
     6    2    3 ar
     7    3    4 ar
     8    3   32 1
     9    4    5 ar
    10    4   12 1
    11    5    6 ar
    12    5   33 1
    13    6    7 ar
    14    6   34 1
    15    7    8 1
    16    8    9 1
    17    8   10 1
    18    8   11 1
    19   12   13 am
    20   12   35 1
    21   13   14 2
    22   13   15 1
    23   15   19 1
    24   15   16 2
    25   16   17 1
    26   16   21 1
    27   17   18 2
    28   18   19 1
    29   18   36 1
    30   19   20 1
    31   20   37 1
    32   20   38 1
    33   20   39 1
    34   21   22 1
    35   21   40 1
    36   22   23 1
    37   22   41 1
    38   22   42 1
    39   23   28 ar
    40   23   24 ar
    41   24   25 ar
    42   24   43 1
    43   25   26 ar
    44   25   44 1
    45   26   27 ar
    46   27   28 ar
    47   27   45 1
    48   28   46 1
@<TRIPOS>MOLECULE
CHEMBL270755
   57    61     0     0     0
SMALL
USER_CHARGES

@<TRIPOS>ATOM
      1 C1         -1.2985    0.0956   -1.5290 C.3       1 <0>         0.0149
      2 O1         -0.4440   -0.5703   -0.5971 O.3       1 <0>        -0.2866
      3 C2          0.8949   -0.4899   -0.8207 C.ar      1 <0>         0.1342
      4 C3          1.3595    0.2108   -1.8960 C.ar      1 <0>        -0.1359
      5 C4          2.7409    0.2941   -2.1263 C.ar      1 <0>        -0.0903
      6 C5          3.2584    1.0108   -3.2285 C.ar      1 <0>         0.2834
      7 C6          4.6321    1.0488   -3.3905 C.ar      1 <0>        -0.2639
      8 C7          5.4514    0.3925   -2.4805 C.ar      1 <0>         0.2258
      9 N1          4.9602   -0.2707   -1.4602 N.ar      1 <0>        -0.4819
     10 C8          3.6420   -0.3486   -1.2427 C.ar      1 <0>         0.1817
     11 C9          3.1332   -1.0624   -0.1451 C.ar      1 <0>        -0.2357
     12 C10         1.7847   -1.1227    0.0590 C.ar      1 <0>         0.2160
     13 O2          1.2982   -1.8096    1.1258 O.3       1 <0>        -0.2777
     14 C11         2.2534   -2.4331    1.9864 C.3       1 <0>         0.0118
     15 O3          2.4342    1.6416   -4.1011 O.3       1 <0>        -0.2126
     16 C12         2.9988    2.3936   -5.0820 C.ar      1 <0>         0.0432
     17 C13         3.5807    1.7639   -6.1862 C.ar      1 <0>        -0.1379
     18 C14         4.1536    2.4917   -7.1839 C.ar      1 <0>        -0.0820
     19 C15         4.1621    3.8915   -7.1077 C.ar      1 <0>        -0.0035
     20 C16         3.5733    4.5340   -5.9911 C.ar      1 <0>        -0.0530
     21 C17         2.9857    3.7560   -4.9796 C.ar      1 <0>        -0.0795
     22 C18         3.5813    5.9378   -5.9155 C.ar      1 <0>        -0.0698
     23 C19         4.1521    6.6732   -6.9108 C.ar      1 <0>        -0.1151
     24 C20         4.7340    6.0612   -8.0137 C.ar      1 <0>        -0.0551
     25 C21         4.7497    4.6789   -8.1293 C.ar      1 <0>        -0.1246
     26 C22         5.3700    4.0358   -9.3025 C.2       1 <0>         0.5617
     27 O4          5.2822    2.8324   -9.4536 O.2       1 <0>        -0.5316
     28 N2          6.0342    4.7819  -10.2073 N.am      1 <0>        -0.7168
     29 C23         6.6505    4.1430  -11.3728 C.3       1 <0>         0.1496
     30 C24         7.3356    5.2058  -12.2341 C.3       1 <0>        -0.1789
     31 C25         6.7963    5.4236  -13.6492 C.3       1 <0>        -0.1750
     32 C26         8.1413    4.7242  -13.4424 C.3       1 <0>        -0.1666
     33 H1         -1.0665    1.1606   -1.5379 H         1 <0>         0.0667
     34 H2         -1.1425   -0.3186   -2.5251 H         1 <0>         0.0673
     35 H3         -2.3382   -0.0473   -1.2348 H         1 <0>         0.1186
     36 H4          0.6672    0.6983   -2.5664 H         1 <0>         0.1725
     37 H5          5.0655    1.5862   -4.2210 H         1 <0>         0.1854
     38 H6          6.5222    0.4289   -2.6168 H         1 <0>         0.2123
     39 H7          3.8070   -1.5583    0.5379 H         1 <0>         0.1712
     40 H8          2.8398   -3.1539    1.4167 H         1 <0>         0.0693
     41 H9          2.9158   -1.6747    2.4038 H         1 <0>         0.0692
     42 H10         1.7333   -2.9461    2.7953 H         1 <0>         0.1214
     43 H11         3.5760    0.6857   -6.2483 H         1 <0>         0.1377
     44 H12         4.6003    1.9924   -8.0311 H         1 <0>         0.1842
     45 H13         2.5297    4.2319   -4.1241 H         1 <0>         0.1457
     46 H14         3.1339    6.4344   -5.0672 H         1 <0>         0.1404
     47 H15         4.1518    7.7509   -6.8410 H         1 <0>         0.1417
     48 H16         5.1792    6.6675   -8.7887 H         1 <0>         0.1362
     49 H17         6.1043    5.7418  -10.0868 H         1 <0>         0.4029
     50 H18         7.3891    3.4141  -11.0394 H         1 <0>         0.0772
     51 H19         5.8823    3.6396  -11.9597 H         1 <0>         0.0755
     52 H20         7.7072    6.0785  -11.6969 H         1 <0>         0.1112
     53 H21         5.9533    4.8098  -13.9666 H         1 <0>         0.0983
     54 H22         6.8128    6.4398  -14.0433 H         1 <0>         0.0989
     55 H23         9.0426    5.2803  -13.7003 H         1 <0>         0.1011
     56 H24         8.1832    3.6502  -13.6237 H         1 <0>         0.0996
     57 H25         5.5677   -0.7153   -0.8485 H         1 <0>         0.4473
@<TRIPOS>BOND
     1    1    2 1
     2    1   33 1
     3    1   34 1
     4    1   35 1
     5    2    3 1
     6    3   12 ar
     7    3    4 ar
     8    4    5 ar
     9    4   36 1
    10    5   10 ar
    11    5    6 ar
    12    6    7 ar
    13    6   15 1
    14    7    8 ar
    15    7   37 1
    16    8    9 ar
    17    8   38 1
    18    9   10 ar
    19    9   57 1
    20   10   11 ar
    21   11   12 ar
    22   11   39 1
    23   12   13 1
    24   13   14 1
    25   14   40 1
    26   14   41 1
    27   14   42 1
    28   15   16 1
    29   16   21 ar
    30   16   17 ar
    31   17   18 ar
    32   17   43 1
    33   18   19 ar
    34   18   44 1
    35   19   25 ar
    36   19   20 ar
    37   20   21 ar
    38   20   22 ar
    39   21   45 1
    40   22   23 ar
    41   22   46 1
    42   23   24 ar
    43   23   47 1
    44   24   25 ar
    45   24   48 1
    46   25   26 1
    47   26   27 2
    48   26   28 am
    49   28   29 1
    50   28   49 1
    51   29   30 1
    52   29   50 1
    53   29   51 1
    54   30   32 1
    55   30   31 1
    56   30   52 1
    57   31   32 1
    58   31   53 1
    59   31   54 1
    60   32   55 1
    61   32   56 1
@<TRIPOS>MOLECULE
CHEMBL376951
   43    46     0     0     0
SMALL
USER_CHARGES

@<TRIPOS>ATOM
      1 C1          1.5954    1.2506    1.3812 C.3       1 <0>        -0.1159
      2 C2          0.8104   -0.0064    1.6550 C.ar      1 <0>        -0.0659
      3 C3         -0.2412   -0.3578    0.8284 C.ar      1 <0>        -0.1338
      4 C4         -0.9639   -1.5102    1.0762 C.ar      1 <0>        -0.0953
      5 C5         -0.6369   -2.3146    2.1505 C.ar      1 <0>        -0.1245
      6 C6          0.4186   -1.9648    2.9820 C.ar      1 <0>         0.1626
      7 C7          1.1456   -0.8090    2.7275 C.ar      1 <0>        -0.1459
      8 N1          0.7524   -2.7775    4.0711 N.am      1 <0>        -0.6799
      9 C8          0.6022   -4.1141    3.9856 C.2       1 <0>         0.7040
     10 O1          0.2675   -4.6221    2.9328 O.2       1 <0>        -0.5489
     11 N2          0.8230   -4.8877    5.0669 N.am      1 <0>        -0.6820
     12 C9          0.7737   -6.2804    4.9521 C.ar      1 <0>         0.1864
     13 C10         1.1988   -6.8954    3.7804 C.ar      1 <0>        -0.1197
     14 C11         1.1509   -8.2681    3.6645 C.ar      1 <0>        -0.0524
     15 C12         0.6756   -9.0401    4.7245 C.ar      1 <0>        -0.0718
     16 C13         0.2500   -8.4204    5.8994 C.ar      1 <0>        -0.0716
     17 C14         0.3050   -7.0477    6.0120 C.ar      1 <0>        -0.1500
     18 C15         0.6224  -10.5159    4.6025 C.2       1 <0>         0.2119
     19 C16        -0.5801  -11.2413    4.9778 C.ar      1 <0>        -0.2908
     20 C17        -1.8294  -10.8001    5.4825 C.ar      1 <0>         0.5189
     21 N3         -2.7676  -11.6986    5.7434 N.ar      1 <0>        -0.5798
     22 C18        -2.5757  -12.9913    5.5484 C.ar      1 <0>         0.3776
     23 N4         -1.4347  -13.4599    5.0812 N.ar      1 <0>        -0.5128
     24 C19        -0.4464  -12.6363    4.7945 C.ar      1 <0>         0.1372
     25 S1          1.2028  -12.7911    4.1694 S.3       1 <0>         0.2645
     26 N5          1.6536  -11.1786    4.1515 N.2       1 <0>        -0.4256
     27 N6         -2.0644   -9.4561    5.6989 N.pl3     1 <0>        -0.8330
     28 H1          2.4278    1.0215    0.7159 H         1 <0>         0.0726
     29 H2          0.9464    1.9889    0.9101 H         1 <0>         0.0691
     30 H3          1.9796    1.6506    2.3195 H         1 <0>         0.0668
     31 H4         -0.4988    0.2694   -0.0122 H         1 <0>         0.1242
     32 H5         -1.7850   -1.7816    0.4293 H         1 <0>         0.1269
     33 H6         -1.2020   -3.2145    2.3438 H         1 <0>         0.1344
     34 H7          1.9695   -0.5361    3.3702 H         1 <0>         0.1251
     35 H8          1.0918   -2.3789    4.8877 H         1 <0>         0.4093
     36 H9          1.0162   -4.4783    5.9248 H         1 <0>         0.4115
     37 H10         1.5668   -6.2972    2.9600 H         1 <0>         0.1440
     38 H11         1.4807   -8.7454    2.7535 H         1 <0>         0.1343
     39 H12        -0.1184   -9.0159    6.7216 H         1 <0>         0.1382
     40 H13        -0.0206   -6.5676    6.9230 H         1 <0>         0.1363
     41 H14        -3.3736  -13.6821    5.7778 H         1 <0>         0.2140
     42 H15        -1.6248   -8.7917    5.1456 H         1 <0>         0.4181
     43 H16        -2.6690   -9.1769    6.4041 H         1 <0>         0.4118
@<TRIPOS>BOND
     1    1    2 1
     2    1   28 1
     3    1   29 1
     4    1   30 1
     5    2    7 ar
     6    2    3 ar
     7    3    4 ar
     8    3   31 1
     9    4    5 ar
    10    4   32 1
    11    5    6 ar
    12    5   33 1
    13    6    7 ar
    14    6    8 1
    15    7   34 1
    16    8    9 am
    17    8   35 1
    18    9   10 2
    19    9   11 am
    20   11   12 1
    21   11   36 1
    22   12   17 ar
    23   12   13 ar
    24   13   14 ar
    25   13   37 1
    26   14   15 ar
    27   14   38 1
    28   15   16 ar
    29   15   18 1
    30   16   17 ar
    31   16   39 1
    32   17   40 1
    33   18   26 2
    34   18   19 1
    35   19   24 ar
    36   19   20 ar
    37   20   21 ar
    38   20   27 1
    39   21   22 ar
    40   22   23 ar
    41   22   41 1
    42   23   24 ar
    43   24   25 1
    44   25   26 1
    45   27   42 1
    46   27   43 1
@<TRIPOS>MOLECULE
CHEMBL98475
   45    48     0     0     0
SMALL
USER_CHARGES

@<TRIPOS>ATOM
      1 C1         11.1144    5.6363   -0.0286 C.ar      1 <0>        -0.1109
      2 C2          9.7552    5.3775   -0.0188 C.ar      1 <0>        -0.1108
      3 C3          9.2977    4.0761   -0.0285 C.ar      1 <0>        -0.1100
      4 C4         10.2095    3.0191   -0.0488 C.ar      1 <0>        -0.0035
      5 C5         11.5795    3.2874   -0.0591 C.ar      1 <0>        -0.0993
      6 C6         12.0235    4.5935   -0.0487 C.ar      1 <0>        -0.1115
      7 C7          9.7266    1.6225   -0.0588 C.2       1 <0>        -0.1654
      8 C8         10.4375    0.4521   -0.0727 C.2       1 <0>         0.0700
      9 N1          9.7398   -0.6644   -0.0791 N.2       1 <0>        -0.5066
     10 C9          8.4224   -0.6475   -0.0725 C.2       1 <0>         0.2527
     11 S1          8.0551    0.9947   -0.0483 S.3       1 <0>         0.1428
     12 N2          7.5492   -1.7233   -0.0782 N.pl3     1 <0>        -0.5944
     13 C10         8.0421   -3.0188   -0.2001 C.ar      1 <0>         0.4141
     14 C11         7.1563   -4.0855   -0.3147 C.ar      1 <0>        -0.2123
     15 C12         7.6599   -5.3679   -0.4356 C.ar      1 <0>        -0.0115
     16 C13         9.0378   -5.5414   -0.4379 C.ar      1 <0>        -0.2675
     17 C14         9.8584   -4.4376   -0.3204 C.ar      1 <0>         0.1785
     18 N3          9.3500   -3.2248   -0.2115 N.ar      1 <0>        -0.4731
     19 C15         9.6311   -6.9207   -0.5670 C.3       1 <0>         0.0621
     20 N4          9.8386   -7.2336   -1.9872 N.4       1 <0>        -0.3941
     21 C16        10.9174   -6.3800   -2.5474 C.3       1 <0>        -0.0063
     22 C17        11.3901   -7.1759   -3.7899 C.3       1 <0>        -0.1450
     23 C18        11.3040   -8.6440   -3.3132 C.3       1 <0>        -0.1450
     24 C19        10.3079   -8.6279   -2.1389 C.3       1 <0>        -0.0088
     25 H1         11.4672    6.6571   -0.0251 H         1 <0>         0.1284
     26 H2          9.0509    6.1961   -0.0031 H         1 <0>         0.1296
     27 H3          8.2365    3.8754   -0.0201 H         1 <0>         0.1218
     28 H4         12.2901    2.4743   -0.0744 H         1 <0>         0.1267
     29 H5         13.0830    4.8024   -0.0567 H         1 <0>         0.1304
     30 H6         11.5175    0.4452   -0.0783 H         1 <0>         0.1781
     31 H7          6.5943   -1.5733    0.0028 H         1 <0>         0.4411
     32 H8          6.0899   -3.9144   -0.3089 H         1 <0>         0.1485
     33 H9          6.9966   -6.2154   -0.5259 H         1 <0>         0.1463
     34 H10        10.9305   -4.5679   -0.3214 H         1 <0>         0.1615
     35 H11        10.5868   -6.9555   -0.0439 H         1 <0>         0.1355
     36 H12         8.9507   -7.6513   -0.1296 H         1 <0>         0.1351
     37 H13        10.5245   -5.4065   -2.8407 H         1 <0>         0.1312
     38 H14        11.7306   -6.2676   -1.8303 H         1 <0>         0.1339
     39 H15        10.7225   -7.0048   -4.6344 H         1 <0>         0.0963
     40 H16        12.4160   -6.9138   -4.0485 H         1 <0>         0.1162
     41 H17        10.9324   -9.2812   -4.1158 H         1 <0>         0.1041
     42 H18        12.2810   -8.9901   -2.9759 H         1 <0>         0.1038
     43 H19        10.8055   -8.9537   -1.2255 H         1 <0>         0.1315
     44 H20         9.4641   -9.2819   -2.3588 H         1 <0>         0.1313
     45 H21         8.9822   -7.0966   -2.5028 H         1 <0>         0.4247
@<TRIPOS>BOND
     1    1    6 ar
     2    1    2 ar
     3    1   25 1
     4    2    3 ar
     5    2   26 1
     6    3    4 ar
     7    3   27 1
     8    4    5 ar
     9    4    7 1
    10    5    6 ar
    11    5   28 1
    12    6   29 1
    13    7   11 1
    14    7    8 2
    15    8    9 1
    16    8   30 1
    17    9   10 2
    18   10   11 1
    19   10   12 1
    20   12   13 1
    21   12   31 1
    22   13   18 ar
    23   13   14 ar
    24   14   15 ar
    25   14   32 1
    26   15   16 ar
    27   15   33 1
    28   16   17 ar
    29   16   19 1
    30   17   18 ar
    31   17   34 1
    32   19   20 1
    33   19   35 1
    34   19   36 1
    35   20   24 1
    36   20   21 1
    37   20   45 1
    38   21   22 1
    39   21   37 1
    40   21   38 1
    41   22   23 1
    42   22   39 1
    43   22   40 1
    44   23   24 1
    45   23   41 1
    46   23   42 1
    47   24   43 1
    48   24   44 1
@<TRIPOS>MOLECULE
CHEMBL383417
   33    36     0     0     0
SMALL
USER_CHARGES

@<TRIPOS>ATOM
      1 C1          0.1903    1.5326    0.0269 C.ar      1 <0>        -0.1503
      2 C2          1.4247    2.1657   -0.0066 C.ar      1 <0>        -0.0492
      3 C3          2.5910    1.4316   -0.0369 C.ar      1 <0>        -0.1658
      4 C4          2.5334    0.0415   -0.0336 C.ar      1 <0>         0.2166
      5 C5          1.2801   -0.5952    0.0009 C.ar      1 <0>        -0.1513
      6 C6          0.1100    0.1683    0.0308 C.ar      1 <0>        -0.0490
      7 C7          1.2264   -2.0629    0.0043 C.2       1 <0>         0.3688
      8 C8          2.4328   -2.7656   -0.0271 C.2       1 <0>        -0.2996
      9 C9          3.6558   -2.0544   -0.0609 C.2       1 <0>         0.5789
     10 O1          4.7040   -2.6756   -0.0882 O.2       1 <0>        -0.5608
     11 N1          3.6899   -0.7116   -0.0631 N.am      1 <0>        -0.6372
     12 H1          4.5481   -0.2601   -0.0871 H         1 <0>         0.4187
     13 C10         2.4322   -4.2380   -0.0247 C.2       1 <0>         0.3925
     14 N2          3.5486   -5.0271    0.0709 N.pl3     1 <0>        -0.5831
     15 H2          4.4655   -4.7204    0.1480 H         1 <0>         0.4345
     16 C11         3.1230   -6.3431    0.0372 C.ar      1 <0>         0.0435
     17 C12         3.7760   -7.5656    0.0944 C.ar      1 <0>        -0.1078
     18 C13         3.0487   -8.7361    0.0350 C.ar      1 <0>        -0.1087
     19 C14         1.6666   -8.7002   -0.0822 C.ar      1 <0>        -0.1248
     20 C15         1.0012   -7.4970   -0.1404 C.ar      1 <0>        -0.0762
     21 C16         1.7229   -6.3005   -0.0810 C.ar      1 <0>         0.0617
     22 N3          1.3613   -4.9938   -0.1080 N.2       1 <0>        -0.5368
     23 N4          0.0236   -2.7256    0.0379 N.pl3     1 <0>        -0.8027
     24 H3         -0.7139    2.1226    0.0546 H         1 <0>         0.1353
     25 H4          1.4721    3.2447   -0.0093 H         1 <0>         0.1373
     26 H5          3.5467    1.9340   -0.0636 H         1 <0>         0.1402
     27 H6         -0.8540   -0.3179    0.0572 H         1 <0>         0.1331
     28 H7          4.8516   -7.6008    0.1849 H         1 <0>         0.1223
     29 H8          3.5586   -9.6871    0.0796 H         1 <0>         0.1294
     30 H9          1.1087   -9.6238   -0.1284 H         1 <0>         0.1289
     31 H10        -0.0748   -7.4768   -0.2319 H         1 <0>         0.1276
     32 H11        -0.8022   -2.2270    0.1398 H         1 <0>         0.4011
     33 H12         0.0000   -3.6922   -0.0403 H         1 <0>         0.4331
@<TRIPOS>BOND
     1    1    6 ar
     2    1    2 ar
     3    1   24 1
     4    2    3 ar
     5    2   25 1
     6    3    4 ar
     7    3   26 1
     8    4   11 1
     9    4    5 ar
    10    5    6 ar
    11    5    7 1
    12    6   27 1
    13    7    8 2
    14    7   23 1
    15    8    9 1
    16    8   13 1
    17    9   10 2
    18    9   11 am
    19   11   12 1
    20   13   22 2
    21   13   14 1
    22   14   15 1
    23   14   16 1
    24   16   21 ar
    25   16   17 ar
    26   17   18 ar
    27   17   28 1
    28   18   19 ar
    29   18   29 1
    30   19   20 ar
    31   19   30 1
    32   20   21 ar
    33   20   31 1
    34   21   22 1
    35   23   32 1
    36   23   33 1
@<TRIPOS>MOLECULE
CHEMBL162
   62    69     0     0     0
SMALL
USER_CHARGES

@<TRIPOS>ATOM
      1 C1         -0.1276    1.5938   -0.2902 C.3       1 <0>        -0.1687
      2 C2         -0.0844    0.0680   -0.1855 C.3       1 <0>         0.3345
      3 C3          0.5692   -0.4497   -1.4608 C.3       1 <0>         0.0405
      4 H1          1.4795    0.1163   -1.6584 H         1 <0>         0.1372
      5 C4          0.9165   -1.9328   -1.2885 C.3       1 <0>        -0.0062
      6 H2          1.3941   -2.3067   -2.1942 H         1 <0>         0.1555
      7 C5          1.8808   -2.0612   -0.1039 C.3       1 <0>        -0.1828
      8 C6          1.2106   -1.5234    1.1545 C.3       1 <0>         0.3001
      9 O1          0.6584   -0.2480    0.9698 O.3       1 <0>        -0.3232
     10 N1          0.2248   -2.4800    1.6600 N.pl3     1 <0>        -0.5368
     11 C7          0.4774   -3.5588    2.4701 C.ar      1 <0>         0.1470
     12 C8          1.6719   -4.0282    3.0159 C.ar      1 <0>        -0.1521
     13 C9          1.6013   -5.1613    3.8083 C.ar      1 <0>        -0.0582
     14 C10         0.4065   -5.8141    4.0588 C.ar      1 <0>        -0.1457
     15 C11        -0.7928   -5.3694    3.5296 C.ar      1 <0>        -0.0281
     16 C12        -0.7420   -4.2270    2.7281 C.ar      1 <0>        -0.1133
     17 C13        -1.7834   -3.4873    2.0211 C.ar      1 <0>         0.0272
     18 C14        -1.1387   -2.4235    1.3862 C.ar      1 <0>         0.0375
     19 C15        -1.8766   -1.5121    0.6225 C.ar      1 <0>         0.0893
     20 N2         -1.4701   -0.3965   -0.1042 N.pl3     1 <0>        -0.5183
     21 C16        -2.5609    0.1893   -0.7020 C.ar      1 <0>         0.1620
     22 C17        -2.6555    1.3256   -1.5046 C.ar      1 <0>        -0.1301
     23 C18        -3.9158    1.6704   -1.9636 C.ar      1 <0>        -0.0737
     24 C19        -5.0430    0.9315   -1.6503 C.ar      1 <0>        -0.1357
     25 C20        -4.9749   -0.2010   -0.8555 C.ar      1 <0>        -0.0503
     26 C21        -3.7134   -0.5626   -0.3834 C.ar      1 <0>        -0.1044
     27 C22        -3.2655   -1.6685    0.4924 C.ar      1 <0>        -0.0362
     28 C23        -3.9045   -2.7331    1.1195 C.ar      1 <0>        -0.0289
     29 C24        -3.1819   -3.6452    1.8815 C.ar      1 <0>        -0.1255
     30 C25        -4.1160   -4.6505    2.4114 C.2       1 <0>         0.5633
     31 O2         -3.7988   -5.5888    3.1172 O.2       1 <0>        -0.5106
     32 N3         -5.3694   -4.3854    2.0058 N.am      1 <0>        -0.7162
     33 C26        -5.3459   -3.1769    1.1740 C.3       1 <0>         0.1359
     34 N4         -0.3065   -2.7008   -1.0194 N.4       1 <0>        -0.5253
     35 C27         0.0148   -4.1335   -0.9747 C.3       1 <0>        -0.0497
     36 O3         -0.3352   -0.2957   -2.5564 O.3       1 <0>        -0.3613
     37 C28         0.3074   -0.0892   -3.8159 C.3       1 <0>         0.0162
     38 H3          0.8308    2.0068    0.0247 H         1 <0>         0.0984
     39 H4         -0.3256    1.8817   -1.3227 H         1 <0>         0.1037
     40 H5         -0.9185    1.9799    0.3528 H         1 <0>         0.0921
     41 H6          2.1400   -3.1098    0.0419 H         1 <0>         0.1233
     42 H7          2.7852   -1.4878   -0.3076 H         1 <0>         0.1455
     43 H8          1.9835   -1.4379    1.9183 H         1 <0>         0.1550
     44 H9          2.6113   -3.5296    2.8282 H         1 <0>         0.1364
     45 H10         2.5093   -5.5494    4.2456 H         1 <0>         0.1359
     46 H11         0.4102   -6.6943    4.6846 H         1 <0>         0.1352
     47 H12        -1.7231   -5.8814    3.7271 H         1 <0>         0.1602
     48 H13        -1.7841    1.9115   -1.7569 H         1 <0>         0.1438
     49 H14        -4.0225    2.5459   -2.5869 H         1 <0>         0.1335
     50 H15        -6.0015    1.2460   -2.0361 H         1 <0>         0.1333
     51 H16        -5.8562   -0.7761   -0.6128 H         1 <0>         0.1416
     52 H17        -6.1577   -4.9060    2.2257 H         1 <0>         0.4348
     53 H18        -5.9609   -2.3989    1.6262 H         1 <0>         0.1115
     54 H19        -5.7062   -3.4047    0.1708 H         1 <0>         0.1104
     55 H20        -0.6946   -2.4153   -0.1328 H         1 <0>         0.4186
     56 H21         0.7414   -4.3184   -0.1836 H         1 <0>         0.1191
     57 H22        -0.8927   -4.7033   -0.7750 H         1 <0>         0.1256
     58 H23         0.4340   -4.4418   -1.9324 H         1 <0>         0.1255
     59 H24        -0.4469    0.0185   -4.5954 H         1 <0>         0.1100
     60 H25         0.9142    0.8152   -3.7703 H         1 <0>         0.0633
     61 H26         0.9451   -0.9435   -4.0429 H         1 <0>         0.0514
     62 H27        -0.9792   -2.5296   -1.7517 H         1 <0>         0.4274
@<TRIPOS>BOND
     1    1    2 1
     2    1   38 1
     3    1   39 1
     4    1   40 1
     5    2    9 1
     6    2   20 1
     7    2    3 1
     8    3    4 1
     9    3    5 1
    10    3   36 1
    11    5    6 1
    12    5    7 1
    13    5   34 1
    14    7    8 1
    15    7   41 1
    16    7   42 1
    17    8    9 1
    18    8   10 1
    19    8   43 1
    20   10   18 1
    21   10   11 1
    22   11   16 ar
    23   11   12 ar
    24   12   13 ar
    25   12   44 1
    26   13   14 ar
    27   13   45 1
    28   14   15 ar
    29   14   46 1
    30   15   16 ar
    31   15   47 1
    32   16   17 1
    33   17   29 ar
    34   17   18 ar
    35   18   19 ar
    36   19   27 ar
    37   19   20 1
    38   20   21 1
    39   21   26 ar
    40   21   22 ar
    41   22   23 ar
    42   22   48 1
    43   23   24 ar
    44   23   49 1
    45   24   25 ar
    46   24   50 1
    47   25   26 ar
    48   25   51 1
    49   26   27 1
    50   27   28 ar
    51   28   33 1
    52   28   29 ar
    53   29   30 1
    54   30   31 2
    55   30   32 am
    56   32   33 1
    57   32   52 1
    58   33   53 1
    59   33   54 1
    60   34   35 1
    61   34   55 1
    62   34   62 1
    63   35   56 1
    64   35   57 1
    65   35   58 1
    66   36   37 1
    67   37   59 1
    68   37   60 1
    69   37   61 1
@<TRIPOS>MOLECULE
CHEMBL162__1
   61    68     0     0     0
SMALL
USER_CHARGES

@<TRIPOS>ATOM
      1 C1         -0.0567    1.5513   -0.0894 C.3       1 <0>        -0.1681
      2 C2         -0.0278    0.0218   -0.0599 C.3       1 <0>         0.3623
      3 C3          0.5811   -0.4397   -1.3782 C.3       1 <0>         0.0679
      4 H1          1.4914    0.1262   -1.5761 H         1 <0>         0.0865
      5 C4          0.9165   -1.9328   -1.2885 C.3       1 <0>         0.0550
      6 H2          1.3622   -2.2669   -2.2254 H         1 <0>         0.0644
      7 C5          1.9146   -2.1282   -0.1417 C.3       1 <0>        -0.1713
      8 C6          1.2889   -1.6457    1.1613 C.3       1 <0>         0.3303
      9 O1          0.7459   -0.3574    1.0554 O.3       1 <0>        -0.3432
     10 N1          0.3079   -2.6158    1.6500 N.pl3     1 <0>        -0.5147
     11 C7          0.5725   -3.7353    2.3988 C.ar      1 <0>         0.1480
     12 C8          1.7775   -4.2425    2.8844 C.ar      1 <0>        -0.1567
     13 C9          1.7179   -5.4120    3.6229 C.ar      1 <0>        -0.0771
     14 C10         0.5239   -6.0644    3.8782 C.ar      1 <0>        -0.1623
     15 C11        -0.6857   -5.5826    3.4081 C.ar      1 <0>        -0.0380
     16 C12        -0.6461   -4.4031    2.6615 C.ar      1 <0>        -0.1052
     17 C13        -1.6998   -3.6196    2.0235 C.ar      1 <0>        -0.0146
     18 C14        -1.0625   -2.5326    1.4212 C.ar      1 <0>         0.1328
     19 C15        -1.8127   -1.5778    0.7254 C.ar      1 <0>         0.2189
     20 N2         -1.4156   -0.4323    0.0413 N.pl3     1 <0>        -0.4798
     21 C16        -2.5171    0.1927   -0.4937 C.ar      1 <0>         0.1719
     22 C17        -2.6230    1.3676   -1.2371 C.ar      1 <0>        -0.1371
     23 C18        -3.8926    1.7468   -1.6400 C.ar      1 <0>        -0.0918
     24 C19        -5.0181    1.0048   -1.3284 C.ar      1 <0>        -0.1543
     25 C20        -4.9390   -0.1657   -0.5916 C.ar      1 <0>        -0.0609
     26 C21        -3.6680   -0.5623   -0.1765 C.ar      1 <0>        -0.0961
     27 C22        -3.2066   -1.7140    0.6307 C.ar      1 <0>        -0.0806
     28 C23        -3.8384   -2.8014    1.2249 C.ar      1 <0>        -0.0396
     29 C24        -3.1037   -3.7566    1.9194 C.ar      1 <0>        -0.1488
     30 C25        -4.0327   -4.7771    2.4285 C.2       1 <0>         0.5678
     31 O2         -3.7051   -5.7517    3.0781 O.2       1 <0>        -0.5303
     32 N3         -5.2947   -4.4802    2.0748 N.am      1 <0>        -0.7263
     33 C26        -5.2825   -3.2330    1.3021 C.3       1 <0>         0.1443
     34 N4         -0.3065   -2.7008   -1.0194 N.3       1 <0>        -0.6725
     35 C27        -0.9816   -3.0711   -2.2704 C.3       1 <0>         0.0321
     36 O3         -0.3541   -0.2236   -2.4368 O.3       1 <0>        -0.3500
     37 C28         0.2525    0.0376   -3.7040 C.3       1 <0>         0.0254
     38 H3          0.9143    1.9390    0.2190 H         1 <0>         0.0847
     39 H4         -0.2789    1.8910   -1.1010 H         1 <0>         0.0945
     40 H5         -0.8258    1.9134    0.5927 H         1 <0>         0.0811
     41 H6          2.1661   -3.1852   -0.0547 H         1 <0>         0.0955
     42 H7          2.8189   -1.5546   -0.3450 H         1 <0>         0.1024
     43 H8          2.0854   -1.6051    1.9042 H         1 <0>         0.1256
     44 H9          2.7165   -3.7447    2.6923 H         1 <0>         0.1264
     45 H10         2.6343   -5.8299    4.0129 H         1 <0>         0.1227
     46 H11         0.5364   -6.9739    4.4603 H         1 <0>         0.1222
     47 H12        -1.6153   -6.0942    3.6091 H         1 <0>         0.1517
     48 H13        -1.7529    1.9564   -1.4875 H         1 <0>         0.1345
     49 H14        -4.0081    2.6526   -2.2167 H         1 <0>         0.1197
     50 H15        -5.9842    1.3471   -1.6689 H         1 <0>         0.1193
     51 H16        -5.8191   -0.7431   -0.3501 H         1 <0>         0.1299
     52 H17        -6.0819   -5.0031    2.2935 H         1 <0>         0.4244
     53 H18        -5.8747   -2.4718    1.8101 H         1 <0>         0.0969
     54 H19        -5.6755   -3.4081    0.3006 H         1 <0>         0.0963
     55 H20        -0.1054   -3.5172   -0.4616 H         1 <0>         0.3444
     56 H21        -1.8838   -3.6387   -2.0422 H         1 <0>         0.0645
     57 H22        -1.2495   -2.1685   -2.8197 H         1 <0>         0.0818
     58 H23        -0.3126   -3.6808   -2.8776 H         1 <0>         0.0150
     59 H24        -0.5237    0.1905   -4.4538 H         1 <0>         0.0929
     60 H25         0.8707    0.9325   -3.6333 H         1 <0>         0.0448
     61 H26         0.8732   -0.8111   -3.9915 H         1 <0>         0.0400
@<TRIPOS>BOND
     1    1    2 1
     2    1   38 1
     3    1   39 1
     4    1   40 1
     5    2    9 1
     6    2   20 1
     7    2    3 1
     8    3    4 1
     9    3    5 1
    10    3   36 1
    11    5    6 1
    12    5    7 1
    13    5   34 1
    14    7    8 1
    15    7   41 1
    16    7   42 1
    17    8    9 1
    18    8   10 1
    19    8   43 1
    20   10   18 1
    21   10   11 1
    22   11   16 ar
    23   11   12 ar
    24   12   13 ar
    25   12   44 1
    26   13   14 ar
    27   13   45 1
    28   14   15 ar
    29   14   46 1
    30   15   16 ar
    31   15   47 1
    32   16   17 1
    33   17   29 ar
    34   17   18 ar
    35   18   19 ar
    36   19   27 ar
    37   19   20 1
    38   20   21 1
    39   21   26 ar
    40   21   22 ar
    41   22   23 ar
    42   22   48 1
    43   23   24 ar
    44   23   49 1
    45   24   25 ar
    46   24   50 1
    47   25   26 ar
    48   25   51 1
    49   26   27 1
    50   27   28 ar
    51   28   33 1
    52   28   29 ar
    53   29   30 1
    54   30   31 2
    55   30   32 am
    56   32   33 1
    57   32   52 1
    58   33   53 1
    59   33   54 1
    60   34   35 1
    61   34   55 1
    62   35   56 1
    63   35   57 1
    64   35   58 1
    65   36   37 1
    66   37   59 1
    67   37   60 1
    68   37   61 1
@<TRIPOS>MOLECULE
CHEMBL221484
   69    72     0     0     0
SMALL
USER_CHARGES

@<TRIPOS>ATOM
      1 C1         -1.2586    1.0187    0.3884 C.3       1 <0>        -0.1223
      2 C2         -0.4677   -0.2569    0.2517 C.ar      1 <0>        -0.0777
      3 C3         -0.4148   -0.9074   -0.9670 C.ar      1 <0>        -0.1082
      4 C4          0.3072   -2.0757   -1.1000 C.ar      1 <0>        -0.1026
      5 C5          0.9876   -2.6050   -0.0015 C.ar      1 <0>        -0.1359
      6 C6          0.9343   -1.9489    1.2280 C.ar      1 <0>        -0.0461
      7 C7          0.2106   -0.7723    1.3499 C.ar      1 <0>         0.1515
      8 N1          0.1585   -0.1076    2.5787 N.pl3     1 <0>        -0.6432
      9 C8          0.0690   -0.8341    3.7568 C.ar      1 <0>         0.4300
     10 C9         -0.0602   -0.1626    4.9820 C.ar      1 <0>        -0.1808
     11 C10        -0.1492   -0.9136    6.1553 C.ar      1 <0>        -0.0013
     12 C11        -0.1058   -2.2950    6.0581 C.ar      1 <0>        -0.2276
     13 C12         0.0230   -2.8855    4.8150 C.ar      1 <0>         0.1747
     14 N2          0.1004   -2.1567    3.7180 N.ar      1 <0>        -0.5358
     15 C13        -0.1009    1.3171    5.0295 C.ar      1 <0>         0.2410
     16 C14        -0.0821    1.9900    6.2556 C.ar      1 <0>        -0.2225
     17 C15        -0.1219    3.3718    6.2451 C.ar      1 <0>         0.1641
     18 N3         -0.1761    4.0082    5.0844 N.ar      1 <0>        -0.5234
     19 C16        -0.1926    3.3454    3.9452 C.ar      1 <0>         0.3130
     20 N4         -0.1506    2.0299    3.9052 N.ar      1 <0>        -0.5465
     21 C17         1.7614   -3.8568   -0.1412 C.2       1 <0>         0.5669
     22 O1          2.3530   -4.3158    0.8164 O.2       1 <0>        -0.5073
     23 N5          1.8110   -4.4892   -1.3304 N.am      1 <0>        -0.6741
     24 C18         2.6120   -5.6250   -1.4854 C.ar      1 <0>         0.1594
     25 C19         3.2688   -5.8547   -2.6877 C.ar      1 <0>        -0.1115
     26 C20         4.0593   -6.9770   -2.8374 C.ar      1 <0>        -0.0799
     27 C21         4.1972   -7.8720   -1.7920 C.ar      1 <0>        -0.0835
     28 C22         3.5444   -7.6466   -0.5942 C.ar      1 <0>        -0.1548
     29 C23         2.7571   -6.5227   -0.4359 C.ar      1 <0>        -0.0692
     30 C24         3.6971   -8.6248    0.5419 C.3       1 <0>         0.5082
     31 F1          4.7877   -8.2520    1.3349 F         1 <0>        -0.1731
     32 F2          2.5335   -8.6228    1.3186 F         1 <0>        -0.1708
     33 F3          3.9119   -9.9077    0.0270 F         1 <0>        -0.1756
     34 C25         4.7723   -7.2270   -4.1413 C.3       1 <0>        -0.0708
     35 C26         6.1545   -6.5722   -4.1005 C.3       1 <0>        -0.1486
     36 C27         6.8783   -6.8260   -5.4244 C.3       1 <0>        -0.0118
     37 N6          8.2054   -6.1974   -5.3852 N.4       1 <0>        -0.3880
     38 C28         8.9462   -6.5410   -6.6063 C.3       1 <0>        -0.0475
     39 C29         8.0539   -4.7388   -5.2986 C.3       1 <0>        -0.0532
     40 H1         -0.6167    1.8701    0.1624 H         1 <0>         0.0762
     41 H2         -2.0981    1.0019   -0.3067 H         1 <0>         0.0746
     42 H3         -1.6330    1.1065    1.4083 H         1 <0>         0.0717
     43 H4         -0.9406   -0.4999   -1.8178 H         1 <0>         0.1344
     44 H5          0.3457   -2.5810   -2.0537 H         1 <0>         0.1230
     45 H6          1.4585   -2.3535    2.0812 H         1 <0>         0.1525
     46 H7          0.1851    0.8616    2.6074 H         1 <0>         0.4350
     47 H8         -0.2490   -0.4296    7.1156 H         1 <0>         0.1429
     48 H9         -0.1718   -2.9055    6.9465 H         1 <0>         0.1434
     49 H10         0.0567   -3.9623    4.7401 H         1 <0>         0.1640
     50 H11        -0.0379    1.4441    7.1864 H         1 <0>         0.1524
     51 H12        -0.1093    3.9259    7.1721 H         1 <0>         0.1749
     52 H13        -0.2375    3.8972    3.0179 H         1 <0>         0.2007
     53 H14         1.2911   -4.1565   -2.0787 H         1 <0>         0.4155
     54 H15         3.1610   -5.1565   -3.5046 H         1 <0>         0.1362
     55 H16         4.8158   -8.7492   -1.9118 H         1 <0>         0.1378
     56 H17         2.2510   -6.3449    0.5015 H         1 <0>         0.1569
     57 H18         4.8831   -8.3004   -4.2948 H         1 <0>         0.0895
     58 H19         4.1924   -6.8009   -4.9600 H         1 <0>         0.0884
     59 H20         6.0436   -5.4988   -3.9471 H         1 <0>         0.0904
     60 H21         6.7344   -6.9983   -3.2819 H         1 <0>         0.0909
     61 H22         6.9892   -7.8995   -5.5779 H         1 <0>         0.1329
     62 H23         6.2984   -6.3999   -6.2431 H         1 <0>         0.1312
     63 H24         8.3988   -6.1803   -7.4771 H         1 <0>         0.1220
     64 H25         9.9310   -6.0746   -6.5773 H         1 <0>         0.1244
     65 H26         9.0587   -7.6233   -6.6706 H         1 <0>         0.1238
     66 H27         7.5042   -4.4837   -4.3926 H         1 <0>         0.1244
     67 H28         9.0386   -4.2723   -5.2696 H         1 <0>         0.1245
     68 H29         7.5065   -4.3780   -6.1694 H         1 <0>         0.1227
     69 H30         8.7121   -6.5313   -4.5792 H         1 <0>         0.4277
@<TRIPOS>BOND
     1    1    2 1
     2    1   40 1
     3    1   41 1
     4    1   42 1
     5    2    7 ar
     6    2    3 ar
     7    3    4 ar
     8    3   43 1
     9    4    5 ar
    10    4   44 1
    11    5    6 ar
    12    5   21 1
    13    6    7 ar
    14    6   45 1
    15    7    8 1
    16    8    9 1
    17    8   46 1
    18    9   14 ar
    19    9   10 ar
    20   10   11 ar
    21   10   15 1
    22   11   12 ar
    23   11   47 1
    24   12   13 ar
    25   12   48 1
    26   13   14 ar
    27   13   49 1
    28   15   20 ar
    29   15   16 ar
    30   16   17 ar
    31   16   50 1
    32   17   18 ar
    33   17   51 1
    34   18   19 ar
    35   19   20 ar
    36   19   52 1
    37   21   22 2
    38   21   23 am
    39   23   24 1
    40   23   53 1
    41   24   29 ar
    42   24   25 ar
    43   25   26 ar
    44   25   54 1
    45   26   27 ar
    46   26   34 1
    47   27   28 ar
    48   27   55 1
    49   28   29 ar
    50   28   30 1
    51   29   56 1
    52   30   31 1
    53   30   32 1
    54   30   33 1
    55   34   35 1
    56   34   57 1
    57   34   58 1
    58   35   36 1
    59   35   59 1
    60   35   60 1
    61   36   37 1
    62   36   61 1
    63   36   62 1
    64   37   38 1
    65   37   39 1
    66   37   69 1
    67   38   63 1
    68   38   64 1
    69   38   65 1
    70   39   66 1
    71   39   67 1
    72   39   68 1
@<TRIPOS>MOLECULE
CHEMBL375840
   46    49     0     0     0
SMALL
USER_CHARGES

@<TRIPOS>ATOM
      1 C1         -0.0484    1.5024    0.0098 C.3       1 <0>        -0.1261
      2 C2         -0.0196   -0.0043    0.0016 C.ar      1 <0>        -0.0268
      3 C3         -0.0179   -0.6868   -1.1985 C.ar      1 <0>        -0.1245
      4 C4          0.0080   -2.0671   -1.2153 C.ar      1 <0>        -0.0695
      5 C5          0.0331   -2.7838   -0.0162 C.ar      1 <0>        -0.1443
      6 C6          0.0320   -2.1029    1.1989 C.ar      1 <0>        -0.0246
      7 C7          0.0111   -0.7080    1.2092 C.ar      1 <0>         0.0067
      8 C8          0.0157    0.0010    2.4534 C.1       1 <0>        -0.1039
      9 C9          0.0195    0.5822    3.4734 C.1       1 <0>        -0.0985
     10 C10         0.0241    1.2911    4.7176 C.ar      1 <0>        -0.0473
     11 C11        -0.0078    2.6880    4.7355 C.ar      1 <0>         0.0092
     12 C12        -0.0017    3.3285    5.9752 C.ar      1 <0>         0.0026
     13 C13         0.0360    2.5513    7.1483 C.ar      1 <0>         0.2464
     14 N1          0.0329    3.4497    8.1936 N.pl3     1 <0>        -0.5884
     15 C14        -0.0049    4.7004    7.6578 C.2       1 <0>         0.2838
     16 N2         -0.0252    4.6305    6.3590 N.2       1 <0>        -0.4853
     17 N3          0.0657    1.2289    7.0815 N.ar      1 <0>        -0.4776
     18 C15         0.0547    0.5927    5.9310 C.ar      1 <0>         0.1705
     19 C16         0.0602   -4.2618   -0.0371 C.2       1 <0>         0.5632
     20 O1          0.0821   -4.8841    1.0070 O.2       1 <0>        -0.5093
     21 N4          0.0608   -4.9192   -1.2136 N.am      1 <0>        -0.6694
     22 C17         0.1843   -6.3121   -1.2362 C.ar      1 <0>         0.1440
     23 C18         0.8885   -6.9319   -2.2607 C.ar      1 <0>        -0.1112
     24 C19         1.0085   -8.3074   -2.2801 C.ar      1 <0>        -0.0995
     25 C20         0.4281   -9.0679   -1.2813 C.ar      1 <0>        -0.0861
     26 C21        -0.2739   -8.4541   -0.2604 C.ar      1 <0>        -0.1641
     27 C22        -0.3920   -7.0782   -0.2315 C.ar      1 <0>        -0.0722
     28 C23        -0.9050   -9.2867    0.8256 C.3       1 <0>         0.5092
     29 F1         -0.6459  -10.6404    0.5855 F         1 <0>        -0.1762
     30 F2         -0.3679   -8.9217    2.0648 F         1 <0>        -0.1724
     31 F3         -2.2873   -9.0711    0.8348 F         1 <0>        -0.1756
     32 H1          0.9720    1.8854   -0.0029 H         1 <0>         0.0818
     33 H2         -0.5818    1.8604   -0.8708 H         1 <0>         0.0767
     34 H3         -0.5562    1.8513    0.9089 H         1 <0>         0.0734
     35 H4         -0.0372   -0.1383   -2.1287 H         1 <0>         0.1393
     36 H5          0.0084   -2.5943   -2.1579 H         1 <0>         0.1308
     37 H6          0.0514   -2.6521    2.1286 H         1 <0>         0.1450
     38 H7         -0.0360    3.2553    3.8169 H         1 <0>         0.1486
     39 H8         -0.0161    5.6175    8.2281 H         1 <0>         0.2291
     40 H9          0.0749   -0.4871    5.9215 H         1 <0>         0.1744
     41 H10        -0.0244   -4.4263   -2.0447 H         1 <0>         0.4144
     42 H11         1.3413   -6.3387   -3.0413 H         1 <0>         0.1374
     43 H12         1.5558   -8.7899   -3.0763 H         1 <0>         0.1417
     44 H13         0.5231  -10.1436   -1.2990 H         1 <0>         0.1415
     45 H14        -0.9364   -6.5990    0.5688 H         1 <0>         0.1512
     46 H15         0.0536    3.2307    9.1383 H         1 <0>         0.4323
@<TRIPOS>BOND
     1    1    2 1
     2    1   32 1
     3    1   33 1
     4    1   34 1
     5    2    7 ar
     6    2    3 ar
     7    3    4 ar
     8    3   35 1
     9    4    5 ar
    10    4   36 1
    11    5    6 ar
    12    5   19 1
    13    6    7 ar
    14    6   37 1
    15    7    8 1
    16    8    9 3
    17    9   10 1
    18   10   18 ar
    19   10   11 ar
    20   11   12 ar
    21   11   38 1
    22   12   16 1
    23   12   13 ar
    24   13   14 1
    25   13   17 ar
    26   14   15 1
    27   14   46 1
    28   15   16 2
    29   15   39 1
    30   17   18 ar
    31   18   40 1
    32   19   20 2
    33   19   21 am
    34   21   22 1
    35   21   41 1
    36   22   27 ar
    37   22   23 ar
    38   23   24 ar
    39   23   42 1
    40   24   25 ar
    41   24   43 1
    42   25   26 ar
    43   25   44 1
    44   26   27 ar
    45   26   28 1
    46   27   45 1
    47   28   29 1
    48   28   30 1
    49   28   31 1
@<TRIPOS>MOLECULE
CHEMBL220874
   45    47     0     0     0
SMALL
USER_CHARGES

@<TRIPOS>ATOM
      1 C1         -0.0484    1.5024    0.0098 C.3       1 <0>        -0.1245
      2 C2         -0.0196   -0.0043    0.0016 C.ar      1 <0>        -0.0284
      3 C3         -0.0178   -0.6868   -1.1985 C.ar      1 <0>        -0.1250
      4 C4          0.0085   -2.0672   -1.2153 C.ar      1 <0>        -0.0713
      5 C5          0.0331   -2.7839   -0.0162 C.ar      1 <0>        -0.1447
      6 C6          0.0315   -2.1031    1.1989 C.ar      1 <0>        -0.0262
      7 C7          0.0111   -0.7080    1.2093 C.ar      1 <0>         0.0123
      8 C8          0.0157    0.0009    2.4535 C.1       1 <0>        -0.1318
      9 C9          0.0195    0.5821    3.4735 C.1       1 <0>        -0.0846
     10 C10         0.0240    1.2910    4.7177 C.ar      1 <0>        -0.1094
     11 C11        -0.0079    2.6940    4.7380 C.ar      1 <0>        -0.0044
     12 C12        -0.0022    3.3299    5.9510 C.ar      1 <0>        -0.2363
     13 C13         0.0350    2.5729    7.1196 C.ar      1 <0>         0.4153
     14 N1          0.0647    1.2491    7.0734 N.ar      1 <0>        -0.5438
     15 C14         0.0546    0.5967    5.9284 C.ar      1 <0>         0.1851
     16 N2          0.0414    3.2149    8.3509 N.pl3     1 <0>        -0.8449
     17 C15         0.0602   -4.2619   -0.0371 C.2       1 <0>         0.5632
     18 O1          0.0816   -4.8842    1.0069 O.2       1 <0>        -0.5097
     19 N3          0.0612   -4.9193   -1.2137 N.am      1 <0>        -0.6696
     20 C16         0.1847   -6.3121   -1.2363 C.ar      1 <0>         0.1443
     21 C17         0.8893   -6.9319   -2.2605 C.ar      1 <0>        -0.1115
     22 C18         1.0098   -8.3073   -2.2797 C.ar      1 <0>        -0.0995
     23 C19         0.4298   -9.0678   -1.2806 C.ar      1 <0>        -0.0863
     24 C20        -0.2722   -8.4540   -0.2598 C.ar      1 <0>        -0.1640
     25 C21        -0.3920   -7.0782   -0.2319 C.ar      1 <0>        -0.0723
     26 C22        -0.9025   -9.2866    0.8268 C.3       1 <0>         0.5091
     27 F1         -0.6426  -10.6402    0.5871 F         1 <0>        -0.1762
     28 F2         -0.3652   -8.9208    2.0656 F         1 <0>        -0.1725
     29 F3         -2.2849   -9.0718    0.8362 F         1 <0>        -0.1756
     30 H1          0.9721    1.8854   -0.0029 H         1 <0>         0.0802
     31 H2         -0.5817    1.8604   -0.8708 H         1 <0>         0.0754
     32 H3         -0.5562    1.8513    0.9089 H         1 <0>         0.0738
     33 H4         -0.0375   -0.1383   -2.1287 H         1 <0>         0.1385
     34 H5          0.0096   -2.5943   -2.1579 H         1 <0>         0.1301
     35 H6          0.0502   -2.6523    2.1286 H         1 <0>         0.1435
     36 H7         -0.0361    3.2592    3.8182 H         1 <0>         0.1384
     37 H8         -0.0258    4.4085    6.0009 H         1 <0>         0.1375
     38 H9          0.0745   -0.4831    5.9267 H         1 <0>         0.1622
     39 H10         0.0201    4.1838    8.3928 H         1 <0>         0.4109
     40 H11         0.0672    2.6946    9.1691 H         1 <0>         0.4069
     41 H12        -0.0237   -4.4263   -2.0448 H         1 <0>         0.4143
     42 H13         1.3422   -6.3386   -3.0412 H         1 <0>         0.1373
     43 H14         1.5572   -8.7898   -3.0759 H         1 <0>         0.1417
     44 H15         0.5252  -10.1434   -1.2981 H         1 <0>         0.1414
     45 H16        -0.9367   -6.5991    0.5682 H         1 <0>         0.1511
@<TRIPOS>BOND
     1    1    2 1
     2    1   30 1
     3    1   31 1
     4    1   32 1
     5    2    7 ar
     6    2    3 ar
     7    3    4 ar
     8    3   33 1
     9    4    5 ar
    10    4   34 1
    11    5    6 ar
    12    5   17 1
    13    6    7 ar
    14    6   35 1
    15    7    8 1
    16    8    9 3
    17    9   10 1
    18   10   15 ar
    19   10   11 ar
    20   11   12 ar
    21   11   36 1
    22   12   13 ar
    23   12   37 1
    24   13   14 ar
    25   13   16 1
    26   14   15 ar
    27   15   38 1
    28   16   39 1
    29   16   40 1
    30   17   18 2
    31   17   19 am
    32   19   20 1
    33   19   41 1
    34   20   25 ar
    35   20   21 ar
    36   21   22 ar
    37   21   42 1
    38   22   23 ar
    39   22   43 1
    40   23   24 ar
    41   23   44 1
    42   24   25 ar
    43   24   26 1
    44   25   45 1
    45   26   27 1
    46   26   28 1
    47   26   29 1
@<TRIPOS>MOLECULE
CHEMBL220874__1
   46    48     0     0     0
SMALL
USER_CHARGES

@<TRIPOS>ATOM
      1 C1         -0.0484    1.5024    0.0098 C.3       1 <0>        -0.1273
      2 C2         -0.0196   -0.0043    0.0016 C.ar      1 <0>        -0.0173
      3 C3         -0.0178   -0.6868   -1.1985 C.ar      1 <0>        -0.1244
      4 C4          0.0085   -2.0672   -1.2153 C.ar      1 <0>        -0.0540
      5 C5          0.0331   -2.7839   -0.0162 C.ar      1 <0>        -0.1415
      6 C6          0.0315   -2.1031    1.1989 C.ar      1 <0>        -0.0144
      7 C7          0.0111   -0.7080    1.2093 C.ar      1 <0>        -0.0308
      8 C8          0.0157    0.0009    2.4535 C.1       1 <0>        -0.0080
      9 C9          0.0195    0.5821    3.4735 C.1       1 <0>        -0.1771
     10 C10         0.0240    1.2910    4.7177 C.ar      1 <0>         0.0024
     11 C11        -0.0079    2.6940    4.7380 C.ar      1 <0>         0.0489
     12 C12        -0.0022    3.3299    5.9510 C.ar      1 <0>        -0.1849
     13 C13         0.0350    2.5729    7.1196 C.ar      1 <0>         0.4538
     14 N1          0.0647    1.2491    7.0734 N.ar      1 <0>        -0.4964
     15 C14         0.0546    0.5967    5.9284 C.ar      1 <0>         0.1574
     16 N2          0.0414    3.2149    8.3509 N.pl3     1 <0>        -0.8153
     17 C15         0.0602   -4.2619   -0.0371 C.2       1 <0>         0.5612
     18 O1          0.0816   -4.8842    1.0069 O.2       1 <0>        -0.5091
     19 N3          0.0612   -4.9193   -1.2137 N.am      1 <0>        -0.6662
     20 C16         0.1847   -6.3121   -1.2363 C.ar      1 <0>         0.1382
     21 C17         0.8893   -6.9319   -2.2605 C.ar      1 <0>        -0.1087
     22 C18         1.0098   -8.3073   -2.2797 C.ar      1 <0>        -0.0981
     23 C19         0.4298   -9.0678   -1.2806 C.ar      1 <0>        -0.0820
     24 C20        -0.2722   -8.4540   -0.2598 C.ar      1 <0>        -0.1642
     25 C21        -0.3920   -7.0782   -0.2319 C.ar      1 <0>        -0.0715
     26 C22        -0.9025   -9.2866    0.8268 C.3       1 <0>         0.5092
     27 F1         -0.6426  -10.6402    0.5871 F         1 <0>        -0.1742
     28 F2         -0.3652   -8.9208    2.0656 F         1 <0>        -0.1735
     29 F3         -2.2849   -9.0718    0.8362 F         1 <0>        -0.1755
     30 H1          0.9721    1.8854   -0.0029 H         1 <0>         0.0844
     31 H2         -0.5817    1.8604   -0.8708 H         1 <0>         0.0819
     32 H3         -0.5562    1.8513    0.9089 H         1 <0>         0.0689
     33 H4         -0.0375   -0.1383   -2.1287 H         1 <0>         0.1447
     34 H5          0.0096   -2.5943   -2.1579 H         1 <0>         0.1366
     35 H6          0.0502   -2.6523    2.1286 H         1 <0>         0.1468
     36 H7         -0.0361    3.2592    3.8182 H         1 <0>         0.1787
     37 H8         -0.0258    4.4085    6.0009 H         1 <0>         0.1866
     38 H9          0.0745   -0.4831    5.9267 H         1 <0>         0.2114
     39 H10         0.0201    4.1838    8.3928 H         1 <0>         0.4427
     40 H11         0.0672    2.6946    9.1691 H         1 <0>         0.4234
     41 H12        -0.0237   -4.4263   -2.0448 H         1 <0>         0.4146
     42 H13         1.3422   -6.3386   -3.0412 H         1 <0>         0.1382
     43 H14         1.5572   -8.7898   -3.0759 H         1 <0>         0.1438
     44 H15         0.5252  -10.1434   -1.2981 H         1 <0>         0.1435
     45 H16        -0.9367   -6.5991    0.5682 H         1 <0>         0.1499
     46 H17         0.0906    0.7475    7.9032 H         1 <0>         0.4472
@<TRIPOS>BOND
     1    1    2 1
     2    1   30 1
     3    1   31 1
     4    1   32 1
     5    2    7 ar
     6    2    3 ar
     7    3    4 ar
     8    3   33 1
     9    4    5 ar
    10    4   34 1
    11    5    6 ar
    12    5   17 1
    13    6    7 ar
    14    6   35 1
    15    7    8 1
    16    8    9 3
    17    9   10 1
    18   10   15 ar
    19   10   11 ar
    20   11   12 ar
    21   11   36 1
    22   12   13 ar
    23   12   37 1
    24   13   14 ar
    25   13   16 1
    26   14   15 ar
    27   14   46 1
    28   15   38 1
    29   16   39 1
    30   16   40 1
    31   17   18 2
    32   17   19 am
    33   19   20 1
    34   19   41 1
    35   20   25 ar
    36   20   21 ar
    37   21   22 ar
    38   21   42 1
    39   22   23 ar
    40   22   43 1
    41   23   24 ar
    42   23   44 1
    43   24   25 ar
    44   24   26 1
    45   25   45 1
    46   26   27 1
    47   26   28 1
    48   26   29 1
@<TRIPOS>MOLECULE
CHEMBL427025
   37    39     0     0     0
SMALL
USER_CHARGES

@<TRIPOS>ATOM
      1 C1         -0.0185    1.3992    0.0107 C.ar      1 <0>        -0.3325
      2 C2          1.1999    2.0706   -0.0006 C.ar      1 <0>         0.4474
      3 N1          2.3277    1.3629   -0.0232 N.ar      1 <0>        -0.5379
      4 C3          2.2994    0.0458   -0.0348 C.ar      1 <0>         0.3792
      5 N2          1.1665   -0.6265   -0.0252 N.ar      1 <0>        -0.5941
      6 C4         -0.0044    0.0076   -0.0022 C.ar      1 <0>         0.4583
      7 N3         -1.1916   -0.7080    0.0087 N.pl3     1 <0>        -0.6089
      8 C5         -1.1876   -2.1616    0.2225 C.3       1 <0>         0.1283
      9 C6         -2.1355   -2.4925    1.3795 C.3       1 <0>        -0.1602
     10 C7         -3.5175   -1.9042    1.0857 C.3       1 <0>         0.0264
     11 C8         -3.4113   -0.3820    0.9685 C.3       1 <0>        -0.1604
     12 C9         -2.4784   -0.0263   -0.1872 C.3       1 <0>         0.1246
     13 N4         -4.4379   -2.2479    2.1778 N.4       1 <0>        -0.6366
     14 N5          1.2395    3.4586    0.0111 N.pl3     1 <0>        -0.5903
     15 C10         2.4520    4.1145    0.1076 C.2       1 <0>         0.2861
     16 N6          3.6651    3.5934    0.1033 N.2       1 <0>        -0.5142
     17 C11         4.7335    4.3460    0.2033 C.2       1 <0>         0.1570
     18 C12         4.5167    5.7118    0.3132 C.2       1 <0>        -0.1988
     19 S1          2.7329    5.7675    0.2512 S.3       1 <0>         0.2056
     20 C13         5.4614    6.7809    0.4362 C.1       1 <0>         0.2958
     21 N7          6.2109    7.6290    0.5339 N.1       1 <0>        -0.3868
     22 H1         -0.9510    1.9436    0.0335 H         1 <0>         0.1424
     23 H2          3.2320   -0.4985   -0.0531 H         1 <0>         0.2048
     24 H3         -1.5266   -2.6650   -0.6830 H         1 <0>         0.0779
     25 H4         -0.1789   -2.4917    0.4707 H         1 <0>         0.1182
     26 H5         -2.2158   -3.5743    1.4861 H         1 <0>         0.1029
     27 H6         -1.7462   -2.0634    2.3028 H         1 <0>         0.0921
     28 H7         -3.8955   -2.3150    0.1496 H         1 <0>         0.1453
     29 H8         -4.3997    0.0384    0.7824 H         1 <0>         0.1040
     30 H9         -3.0100    0.0273    1.8956 H         1 <0>         0.0939
     31 H10        -2.3210    1.0520   -0.2092 H         1 <0>         0.1060
     32 H11        -2.9249   -0.3517   -1.1268 H         1 <0>         0.0837
     33 H12        -4.0880   -1.8682    3.0447 H         1 <0>         0.4338
     34 H13        -5.3491   -1.8601    1.9843 H         1 <0>         0.4368
     35 H14         0.4160    3.9677   -0.0485 H         1 <0>         0.4401
     36 H15         5.7284    3.9258    0.2007 H         1 <0>         0.1920
     37 H16        -4.5089   -3.2515    2.2545 H         1 <0>         0.4378
@<TRIPOS>BOND
     1    1    6 ar
     2    1    2 ar
     3    1   22 1
     4    2    3 ar
     5    2   14 1
     6    3    4 ar
     7    4    5 ar
     8    4   23 1
     9    5    6 ar
    10    6    7 1
    11    7   12 1
    12    7    8 1
    13    8    9 1
    14    8   24 1
    15    8   25 1
    16    9   10 1
    17    9   26 1
    18    9   27 1
    19   10   11 1
    20   10   13 1
    21   10   28 1
    22   11   12 1
    23   11   29 1
    24   11   30 1
    25   12   31 1
    26   12   32 1
    27   13   33 1
    28   13   34 1
    29   13   37 1
    30   14   15 1
    31   14   35 1
    32   15   19 1
    33   15   16 2
    34   16   17 1
    35   17   18 2
    36   17   36 1
    37   18   19 1
    38   18   20 1
    39   20   21 3
@<TRIPOS>MOLECULE
CHEMBL427025__1
   38    40     0     0     0
SMALL
USER_CHARGES

@<TRIPOS>ATOM
      1 C1         -2.4534    1.2426    0.0256 C.ar      1 <0>        -0.3076
      2 C2         -2.3088   -0.1407    0.0162 C.ar      1 <0>         0.5048
      3 N1         -1.0835   -0.6626    0.0263 N.ar      1 <0>        -0.4801
      4 C3         -0.0186    0.1123    0.0449 C.ar      1 <0>         0.4348
      5 N2         -0.1136    1.4265    0.0547 N.ar      1 <0>        -0.5712
      6 C4         -1.3025    2.0257    0.0394 C.ar      1 <0>         0.4898
      7 N3         -1.3931    3.4090    0.0487 N.pl3     1 <0>        -0.5972
      8 C5         -0.1873    4.2390   -0.0769 C.3       1 <0>         0.1041
      9 C6         -0.3871    5.2275   -1.2300 C.3       1 <0>        -0.1630
     10 C7         -1.6751    6.0211   -0.9990 C.3       1 <0>         0.0257
     11 C8         -2.8684    5.0633   -0.9717 C.3       1 <0>        -0.1654
     12 C9         -2.6974    4.0729    0.1783 C.3       1 <0>         0.1154
     13 N4         -1.8526    6.9932   -2.0859 N.4       1 <0>        -0.6364
     14 N5         -3.4257   -0.9656   -0.0029 N.pl3     1 <0>        -0.5541
     15 C10        -3.2720   -2.3341   -0.1182 C.2       1 <0>         0.2136
     16 N6         -2.1516   -3.0324   -0.1254 N.2       1 <0>        -0.4998
     17 C11        -2.1597   -4.3378   -0.2431 C.2       1 <0>         0.1383
     18 C12        -3.4049   -4.9381   -0.3588 C.2       1 <0>        -0.1527
     19 S1         -4.4690   -3.5065   -0.2755 S.3       1 <0>         0.2792
     20 C13        -3.7434   -6.3223   -0.5006 C.1       1 <0>         0.2758
     21 N7         -4.0119   -7.4204   -0.6131 N.1       1 <0>        -0.3506
     22 H1         -3.4330    1.6974    0.0180 H         1 <0>         0.1851
     23 H2          0.9608   -0.3427    0.0526 H         1 <0>         0.2523
     24 H3         -0.0232    4.7877    0.8505 H         1 <0>         0.1133
     25 H4          0.6735    3.6037   -0.2852 H         1 <0>         0.1006
     26 H5          0.4596    5.9126   -1.2727 H         1 <0>         0.1197
     27 H6         -0.4606    4.6802   -2.1698 H         1 <0>         0.1007
     28 H7         -1.6109    6.5485   -0.0472 H         1 <0>         0.1521
     29 H8         -3.7878    5.6315   -0.8305 H         1 <0>         0.1204
     30 H9         -2.9185    4.5175   -1.9139 H         1 <0>         0.1010
     31 H10        -3.4922    3.3280    0.1382 H         1 <0>         0.1196
     32 H11        -2.7425    4.6078    1.1269 H         1 <0>         0.1094
     33 H12        -1.9115    6.5054   -2.9672 H         1 <0>         0.4366
     34 H13        -2.7018    7.5165   -1.9338 H         1 <0>         0.4438
     35 H14        -4.3137   -0.5812    0.0647 H         1 <0>         0.4548
     36 H15        -1.2466   -4.9146   -0.2499 H         1 <0>         0.2018
     37 H16        -1.0665    7.6255   -2.1034 H         1 <0>         0.4432
     38 H17         0.6934    1.9646    0.0687 H         1 <0>         0.4421
@<TRIPOS>BOND
     1    1    2 ar
     2    1   22 1
     3    1    6 ar
     4    2   14 1
     5    2    3 ar
     6    3    4 ar
     7    4    5 ar
     8    4   23 1
     9    5    6 ar
    10    5   38 1
    11    6    7 1
    12    7   12 1
    13    7    8 1
    14    8    9 1
    15    8   24 1
    16    8   25 1
    17    9   10 1
    18    9   26 1
    19    9   27 1
    20   10   11 1
    21   10   13 1
    22   10   28 1
    23   11   12 1
    24   11   29 1
    25   11   30 1
    26   12   31 1
    27   12   32 1
    28   13   33 1
    29   13   34 1
    30   13   37 1
    31   14   15 1
    32   14   35 1
    33   15   19 1
    34   15   16 2
    35   16   17 1
    36   17   18 2
    37   17   36 1
    38   18   19 1
    39   18   20 1
    40   20   21 3
@<TRIPOS>MOLECULE
CHEMBL427025__2
   38    40     0     0     0
SMALL
USER_CHARGES

@<TRIPOS>ATOM
      1 C1          0.0106    1.4672   -0.2331 C.ar      1 <0>        -0.2922
      2 C2          1.2272    2.0973    0.0090 C.ar      1 <0>         0.4679
      3 N1          2.3083    1.3521    0.2303 N.ar      1 <0>        -0.5602
      4 C3          2.2362    0.0366    0.2217 C.ar      1 <0>         0.4426
      5 N2          1.1036   -0.5973   -0.0039 N.ar      1 <0>        -0.5362
      6 C4         -0.0225    0.0759   -0.2331 C.ar      1 <0>         0.4971
      7 N3         -1.2100   -0.5994   -0.4686 N.pl3     1 <0>        -0.5650
      8 C5         -1.3012   -2.0502   -0.2553 C.3       1 <0>         0.1107
      9 C6         -2.4805   -2.3381    0.6791 C.3       1 <0>        -0.1621
     10 C7         -3.7494   -1.7067    0.1019 C.3       1 <0>         0.0237
     11 C8         -3.5684   -0.1901    0.0058 C.3       1 <0>        -0.1623
     12 C9         -2.4031    0.1231   -0.9304 C.3       1 <0>         0.1065
     13 N4         -4.8888   -2.0090    0.9786 N.4       1 <0>        -0.6363
     14 N5          1.3129    3.4832    0.0191 N.pl3     1 <0>        -0.5806
     15 C10         0.1645    4.2472   -0.0670 C.2       1 <0>         0.2260
     16 N6         -1.0905    3.8375   -0.0709 N.2       1 <0>        -0.5526
     17 C11        -2.0866    4.6848   -0.1591 C.2       1 <0>         0.1328
     18 C12        -1.7475    6.0271   -0.2473 C.2       1 <0>        -0.1500
     19 S1          0.0340    5.9208   -0.1845 S.3       1 <0>         0.3298
     20 C13        -2.5919    7.1788   -0.3535 C.1       1 <0>         0.2697
     21 N7         -3.2618    8.0924   -0.4377 N.1       1 <0>        -0.3406
     22 H1         -0.8856    2.0427   -0.4119 H         1 <0>         0.2234
     23 H2          3.1317   -0.5388    0.4045 H         1 <0>         0.2543
     24 H3         -1.4612   -2.5506   -1.2104 H         1 <0>         0.1001
     25 H4         -0.3785   -2.4115    0.1988 H         1 <0>         0.1255
     26 H5         -2.6188   -3.4156    0.7691 H         1 <0>         0.1154
     27 H6         -2.2776   -1.9135    1.6623 H         1 <0>         0.0970
     28 H7         -3.9380   -2.1136   -0.8916 H         1 <0>         0.1503
     29 H8         -4.4810    0.2613   -0.3834 H         1 <0>         0.1169
     30 H9         -3.3553    0.2143    0.9954 H         1 <0>         0.0997
     31 H10        -2.2072    1.1953   -0.9215 H         1 <0>         0.1194
     32 H11        -2.6549   -0.1961   -1.9417 H         1 <0>         0.1053
     33 H12        -4.7144   -1.6330    1.8985 H         1 <0>         0.4356
     34 H13        -5.7255   -1.5927    0.5982 H         1 <0>         0.4415
     35 H14         2.1788    3.9151    0.0867 H         1 <0>         0.4511
     36 H15        -3.1153    4.3559   -0.1631 H         1 <0>         0.2025
     37 H16        -5.0090   -3.0088    1.0411 H         1 <0>         0.4422
     38 H17         3.1603    1.7835    0.3999 H         1 <0>         0.4511
@<TRIPOS>BOND
     1    1    6 ar
     2    1    2 ar
     3    1   22 1
     4    2    3 ar
     5    2   14 1
     6    3    4 ar
     7    3   38 1
     8    4    5 ar
     9    4   23 1
    10    5    6 ar
    11    6    7 1
    12    7   12 1
    13    7    8 1
    14    8    9 1
    15    8   24 1
    16    8   25 1
    17    9   10 1
    18    9   26 1
    19    9   27 1
    20   10   11 1
    21   10   13 1
    22   10   28 1
    23   11   12 1
    24   11   29 1
    25   11   30 1
    26   12   31 1
    27   12   32 1
    28   13   33 1
    29   13   34 1
    30   13   37 1
    31   14   15 1
    32   14   35 1
    33   15   19 1
    34   15   16 2
    35   16   17 1
    36   17   18 2
    37   17   36 1
    38   18   19 1
    39   18   20 1
    40   20   21 3
@<TRIPOS>MOLECULE
CHEMBL82069
   57    61     0     0     0
SMALL
USER_CHARGES

@<TRIPOS>ATOM
      1 C1          0.4772    1.4474   -0.7307 C.ar      1 <0>        -0.1097
      2 C2          1.6928    2.1053   -0.7720 C.ar      1 <0>        -0.0983
      3 C3          2.8709    1.3854   -0.7345 C.ar      1 <0>        -0.1156
      4 C4          2.8338   -0.0004   -0.6554 C.ar      1 <0>         0.1155
      5 C5          1.6116   -0.6581   -0.6141 C.ar      1 <0>        -0.1164
      6 C6          0.4370    0.0674   -0.6518 C.ar      1 <0>        -0.0998
      7 N1          4.0272   -0.7336   -0.6177 N.pl3     1 <0>        -0.4427
      8 C7          5.0843   -0.6004   -1.4671 C.2       1 <0>         0.2769
      9 N2          6.0255   -1.4386   -1.1443 N.2       1 <0>        -0.4865
     10 C8          5.6384   -2.1680   -0.0656 C.ar      1 <0>         0.0519
     11 C9          4.3534   -1.7226    0.2919 C.ar      1 <0>         0.0566
     12 C10         3.6965   -2.2882    1.3765 C.ar      1 <0>        -0.0963
     13 C11         4.2977   -3.2776    2.1025 C.ar      1 <0>        -0.0908
     14 C12         5.5763   -3.7291    1.7627 C.ar      1 <0>        -0.0581
     15 C13         6.2455   -3.1820    0.6765 C.ar      1 <0>        -0.0469
     16 C14         6.2170   -4.8035    2.5608 C.ar      1 <0>        -0.0981
     17 C15         5.5483   -5.3736    3.6496 C.ar      1 <0>        -0.0344
     18 C16         6.1853   -6.3708    4.3626 C.ar      1 <0>        -0.1722
     19 C17         7.4595   -6.7722    3.9784 C.ar      1 <0>         0.3018
     20 N3          8.0646   -6.2127    2.9437 N.ar      1 <0>        -0.5314
     21 C18         7.4895   -5.2625    2.2337 C.ar      1 <0>         0.1471
     22 O1          8.0911   -7.7506    4.6743 O.3       1 <0>        -0.3211
     23 C19         9.3987   -8.1204    4.2322 C.3       1 <0>         0.0384
     24 C20         9.9466   -9.2297    5.1322 C.3       1 <0>        -0.0031
     25 N4          9.1080  -10.4283    4.9978 N.4       1 <0>        -0.3842
     26 C21         9.5385  -11.4368    5.9735 C.3       1 <0>        -0.0071
     27 C22         8.6170  -12.6558    5.8932 C.3       1 <0>        -0.1464
     28 C23         8.6838  -13.2473    4.4822 C.3       1 <0>        -0.1389
     29 C24         8.3045  -12.1651    3.4672 C.3       1 <0>        -0.1451
     30 C25         9.2375  -10.9643    3.6375 C.3       1 <0>        -0.0133
     31 H1         -0.4427    2.0128   -0.7556 H         1 <0>         0.1338
     32 H2          1.7210    3.1831   -0.8339 H         1 <0>         0.1367
     33 H3          3.8199    1.8997   -0.7672 H         1 <0>         0.1324
     34 H4          1.5796   -1.7359   -0.5529 H         1 <0>         0.1289
     35 H5         -0.5140   -0.4436   -0.6194 H         1 <0>         0.1352
     36 H6          5.1337    0.0990   -2.2886 H         1 <0>         0.2194
     37 H7          2.7087   -1.9454    1.6470 H         1 <0>         0.1286
     38 H8          3.7815   -3.7135    2.9450 H         1 <0>         0.1342
     39 H9          7.2338   -3.5302    0.4150 H         1 <0>         0.1354
     40 H10         4.5583   -5.0419    3.9260 H         1 <0>         0.1513
     41 H11         5.6990   -6.8330    5.2090 H         1 <0>         0.1463
     42 H12         8.0130   -4.8326    1.3925 H         1 <0>         0.1691
     43 H13         9.3468   -8.4790    3.2042 H         1 <0>         0.0909
     44 H14        10.0577   -7.2536    4.2817 H         1 <0>         0.1129
     45 H15        10.9686   -9.4663    4.8362 H         1 <0>         0.1492
     46 H16         9.9372   -8.8942    6.1692 H         1 <0>         0.1413
     47 H17        10.5620  -11.7406    5.7539 H         1 <0>         0.1291
     48 H18         9.4935  -11.0134    6.9769 H         1 <0>         0.1307
     49 H19         8.9394  -13.4042    6.6172 H         1 <0>         0.1126
     50 H20         7.5932  -12.3532    6.1130 H         1 <0>         0.0876
     51 H21         9.6965  -13.5968    4.2810 H         1 <0>         0.0821
     52 H22         7.9867  -14.0814    4.4033 H         1 <0>         0.0942
     53 H23         8.4035  -12.5626    2.4572 H         1 <0>         0.1120
     54 H24         7.2741  -11.8523    3.6366 H         1 <0>         0.0871
     55 H25         8.9703  -10.1920    2.9162 H         1 <0>         0.1283
     56 H26        10.2675  -11.2781    3.4676 H         1 <0>         0.1304
     57 H27         8.1445  -10.1847    5.1719 H         1 <0>         0.4281
@<TRIPOS>BOND
     1    1    6 ar
     2    1    2 ar
     3    1   31 1
     4    2    3 ar
     5    2   32 1
     6    3    4 ar
     7    3   33 1
     8    4    5 ar
     9    4    7 1
    10    5    6 ar
    11    5   34 1
    12    6   35 1
    13    7   11 1
    14    7    8 1
    15    8    9 2
    16    8   36 1
    17    9   10 1
    18   10   15 ar
    19   10   11 ar
    20   11   12 ar
    21   12   13 ar
    22   12   37 1
    23   13   14 ar
    24   13   38 1
    25   14   15 ar
    26   14   16 1
    27   15   39 1
    28   16   21 ar
    29   16   17 ar
    30   17   18 ar
    31   17   40 1
    32   18   19 ar
    33   18   41 1
    34   19   20 ar
    35   19   22 1
    36   20   21 ar
    37   21   42 1
    38   22   23 1
    39   23   24 1
    40   23   43 1
    41   23   44 1
    42   24   25 1
    43   24   45 1
    44   24   46 1
    45   25   30 1
    46   25   26 1
    47   25   57 1
    48   26   27 1
    49   26   47 1
    50   26   48 1
    51   27   28 1
    52   27   49 1
    53   27   50 1
    54   28   29 1
    55   28   51 1
    56   28   52 1
    57   29   30 1
    58   29   53 1
    59   29   54 1
    60   30   55 1
    61   30   56 1
@<TRIPOS>MOLECULE
CHEMBL196805
   66    70     0     0     0
SMALL
USER_CHARGES

@<TRIPOS>ATOM
      1 C1         -0.1216    1.4818   -0.0487 C.3       1 <0>         0.0193
      2 O1         -0.1121    0.0528   -0.0423 O.3       1 <0>        -0.2998
      3 C2          0.5133   -0.5645   -1.0788 C.ar      1 <0>         0.1230
      4 C3          1.0991    0.1873   -2.0593 C.ar      1 <0>        -0.1486
      5 C4          1.7420   -0.4493   -3.1246 C.ar      1 <0>        -0.1518
      6 C5          1.7816   -1.8679   -3.1801 C.ar      1 <0>         0.1892
      7 C6          1.1726   -2.6137   -2.1609 C.ar      1 <0>        -0.1760
      8 C7          0.5558   -1.9668   -1.1277 C.ar      1 <0>         0.1632
      9 O2         -0.0289   -2.6900   -0.1376 O.3       1 <0>        -0.2929
     10 C8          0.0470   -4.1131   -0.2423 C.3       1 <0>         0.0553
     11 C9         -0.6618   -4.7510    0.9543 C.3       1 <0>        -0.1486
     12 C10        -0.5805   -6.2747    0.8422 C.3       1 <0>        -0.0020
     13 N1         -1.2610   -6.8872    1.9910 N.4       1 <0>        -0.3935
     14 C11        -2.7247   -6.6491    1.9059 C.3       1 <0>        -0.0093
     15 C12        -3.3186   -7.7712    2.7940 C.3       1 <0>        -0.1457
     16 C13        -2.3948   -8.9742    2.4949 C.3       1 <0>        -0.1456
     17 C14        -1.0890   -8.3559    1.9621 C.3       1 <0>        -0.0082
     18 N2          2.4037   -2.4535   -4.2103 N.ar      1 <0>        -0.5134
     19 C15         2.9659   -1.7293   -5.1507 C.ar      1 <0>         0.3268
     20 N3          2.9571   -0.4086   -5.1457 N.ar      1 <0>        -0.5291
     21 C16         2.3673    0.2784   -4.1699 C.ar      1 <0>         0.3718
     22 N4          2.3642    1.6392   -4.1748 N.2       1 <0>        -0.3906
     23 C17         3.2869    2.2951   -3.5300 C.2       1 <0>         0.1748
     24 C18         4.4643    1.5947   -2.8708 C.3       1 <0>        -0.1620
     25 C19         5.7155    2.3216   -3.3159 C.2       1 <0>         0.4080
     26 C20         5.7043    3.7944   -3.4057 C.2       1 <0>         0.1191
     27 C21         4.5408    4.4888   -3.4546 C.2       1 <0>        -0.2914
     28 C22         3.2575    3.7783   -3.3981 C.2       1 <0>         0.4432
     29 O3          2.2110    4.3801   -3.2461 O.2       1 <0>        -0.3952
     30 O4          6.8788    4.4655   -3.4395 O.3       1 <0>        -0.2763
     31 C23         6.8096    5.8902   -3.5267 C.3       1 <0>         0.1348
     32 C24         8.2044    6.4601   -3.5530 C.2       1 <0>        -0.0434
     33 C25         8.9370    6.6963   -4.6561 C.2       1 <0>        -0.1616
     34 C26        10.1728    7.2278   -4.2210 C.2       1 <0>        -0.2194
     35 C27        10.1214    7.2847   -2.8781 C.2       1 <0>        -0.0136
     36 O5          8.9246    6.8238   -2.4793 O.3       1 <0>        -0.1699
     37 O6          6.7143    1.7014   -3.5947 O.2       1 <0>        -0.3797
     38 H1          0.9034    1.8521   -0.0346 H         1 <0>         0.0603
     39 H2         -0.6243    1.8378   -0.9480 H         1 <0>         0.0641
     40 H3         -0.6514    1.8455    0.8317 H         1 <0>         0.1115
     41 H4          1.0649    1.2657   -2.0111 H         1 <0>         0.1514
     42 H5          1.1949   -3.6931   -2.1900 H         1 <0>         0.1561
     43 H6         -0.4356   -4.4358   -1.1648 H         1 <0>         0.0784
     44 H7          1.0924   -4.4215   -0.2520 H         1 <0>         0.0790
     45 H8         -0.1791   -4.4283    1.8768 H         1 <0>         0.1006
     46 H9         -1.7072   -4.4426    0.9640 H         1 <0>         0.1000
     47 H10        -1.0631   -6.5974   -0.0803 H         1 <0>         0.1340
     48 H11         0.4649   -6.5831    0.8324 H         1 <0>         0.1348
     49 H12        -2.9786   -5.6673    2.3054 H         1 <0>         0.1366
     50 H13        -3.0714   -6.7485    0.8773 H         1 <0>         0.1347
     51 H14        -3.2664   -7.4974    3.8477 H         1 <0>         0.0986
     52 H15        -4.3454   -7.9915    2.5020 H         1 <0>         0.1172
     53 H16        -2.2014   -9.5386    3.4072 H         1 <0>         0.1057
     54 H17        -2.8446   -9.6179    1.7390 H         1 <0>         0.1043
     55 H18        -0.9107   -8.6888    0.9396 H         1 <0>         0.1315
     56 H19        -0.2539   -8.6446    2.6003 H         1 <0>         0.1333
     57 H20         3.4590   -2.2376   -5.9661 H         1 <0>         0.2076
     58 H21         4.3691    1.6477   -1.7863 H         1 <0>         0.1522
     59 H22         4.5585    5.5653   -3.5386 H         1 <0>         0.1706
     60 H23         6.2842    6.1733   -4.4387 H         1 <0>         0.1094
     61 H24         6.2734    6.2815   -2.6621 H         1 <0>         0.0966
     62 H25         8.6388    6.5142   -5.6780 H         1 <0>         0.1544
     63 H26        10.9996    7.5299   -4.8469 H         1 <0>         0.1558
     64 H27        10.9077    7.6438   -2.2306 H         1 <0>         0.2102
     65 H28         4.5039    0.5532   -3.1901 H         1 <0>         0.1219
     66 H29        -0.8960   -6.5110    2.8532 H         1 <0>         0.4284
@<TRIPOS>BOND
     1    1    2 1
     2    1   38 1
     3    1   39 1
     4    1   40 1
     5    2    3 1
     6    3    8 ar
     7    3    4 ar
     8    4    5 ar
     9    4   41 1
    10    5   21 ar
    11    5    6 ar
    12    6    7 ar
    13    6   18 ar
    14    7    8 ar
    15    7   42 1
    16    8    9 1
    17    9   10 1
    18   10   11 1
    19   10   43 1
    20   10   44 1
    21   11   12 1
    22   11   45 1
    23   11   46 1
    24   12   13 1
    25   12   47 1
    26   12   48 1
    27   13   17 1
    28   13   14 1
    29   13   66 1
    30   14   15 1
    31   14   49 1
    32   14   50 1
    33   15   16 1
    34   15   51 1
    35   15   52 1
    36   16   17 1
    37   16   53 1
    38   16   54 1
    39   17   55 1
    40   17   56 1
    41   18   19 ar
    42   19   20 ar
    43   19   57 1
    44   20   21 ar
    45   21   22 1
    46   22   23 2
    47   23   28 1
    48   23   24 1
    49   24   58 1
    50   24   65 1
    51   24   25 1
    52   25   37 2
    53   25   26 1
    54   26   30 1
    55   26   27 2
    56   27   28 1
    57   27   59 1
    58   28   29 2
    59   30   31 1
    60   31   32 1
    61   31   60 1
    62   31   61 1
    63   32   36 1
    64   32   33 2
    65   33   34 1
    66   33   62 1
    67   34   35 2
    68   34   63 1
    69   35   36 1
    70   35   64 1
@<TRIPOS>MOLECULE
CHEMBL196805__1
   66    70     0     0     0
SMALL
USER_CHARGES

@<TRIPOS>ATOM
      1 C1         -0.0647    1.4757   -0.0151 C.3       1 <0>         0.0202
      2 O1         -0.0540    0.0467   -0.0104 O.3       1 <0>        -0.2993
      3 C2          0.5576   -0.5691   -1.0560 C.ar      1 <0>         0.1216
      4 C3          1.1293    0.1842   -2.0437 C.ar      1 <0>        -0.1508
      5 C4          1.7579   -0.4508   -3.1184 C.ar      1 <0>        -0.1526
      6 C5          1.7978   -1.8693   -3.1759 C.ar      1 <0>         0.1898
      7 C6          1.2034   -2.6167   -2.1492 C.ar      1 <0>        -0.1740
      8 C7          0.6003   -1.9712   -1.1070 C.ar      1 <0>         0.1600
      9 O2          0.0298   -2.6959   -0.1097 O.3       1 <0>        -0.2935
     10 C8          0.1053   -4.1189   -0.2169 C.3       1 <0>         0.0553
     11 C9         -0.5865   -4.7585    0.9886 C.3       1 <0>        -0.1483
     12 C10        -0.5057   -6.2821    0.8738 C.3       1 <0>        -0.0021
     13 N1         -1.1700   -6.8962    2.0312 N.4       1 <0>        -0.3935
     14 C11        -2.6348   -6.6592    1.9664 C.3       1 <0>        -0.0093
     15 C12        -3.2157   -7.7826    2.8614 C.3       1 <0>        -0.1457
     16 C13        -2.2952   -8.9846    2.5485 C.3       1 <0>        -0.1456
     17 C14        -0.9973   -8.3648    1.9984 C.3       1 <0>        -0.0083
     18 N2          2.4061   -2.4535   -4.2152 N.ar      1 <0>        -0.5153
     19 C15         2.9549   -1.7279   -5.1624 C.ar      1 <0>         0.3305
     20 N3          2.9452   -0.4072   -5.1559 N.ar      1 <0>        -0.5119
     21 C16         2.3683    0.2784   -4.1714 C.ar      1 <0>         0.3729
     22 N4          2.3642    1.6392   -4.1748 N.2       1 <0>        -0.3925
     23 C17         3.2869    2.2951   -3.5300 C.2       1 <0>         0.1743
     24 C18         3.2535    3.8086   -3.3900 C.3       1 <0>        -0.1086
     25 C19         3.4640    4.1206   -1.9235 C.2       1 <0>         0.4023
     26 C20         4.4513    3.3415   -1.1517 C.2       1 <0>         0.1162
     27 C21         4.9083    2.1450   -1.5965 C.2       1 <0>        -0.2971
     28 C22         4.4370    1.6084   -2.8789 C.2       1 <0>         0.3850
     29 O3          4.9692    0.6411   -3.3903 O.2       1 <0>        -0.3988
     30 O4          4.9100    3.8312    0.0233 O.3       1 <0>        -0.2753
     31 C23         5.8646    3.0359    0.7291 C.3       1 <0>         0.1351
     32 C24         6.2572    3.7364    2.0044 C.2       1 <0>        -0.0418
     33 C25         5.6547    3.5927    3.1984 C.2       1 <0>        -0.1638
     34 C26         6.3428    4.4285    4.1077 C.2       1 <0>        -0.2210
     35 C27         7.3247    5.0330    3.4149 C.2       1 <0>        -0.0106
     36 O5          7.2717    4.6055    2.1428 O.3       1 <0>        -0.1681
     37 O6          2.8295    4.9997   -1.3901 O.2       1 <0>        -0.3777
     38 H1          0.9603    1.8467   -0.0148 H         1 <0>         0.0568
     39 H2         -0.5798    1.8322   -0.9071 H         1 <0>         0.0632
     40 H3         -0.5826    1.8381    0.8729 H         1 <0>         0.1121
     41 H4          1.0950    1.2625   -1.9938 H         1 <0>         0.1461
     42 H5          1.2261   -3.6960   -2.1798 H         1 <0>         0.1556
     43 H6         -0.3897   -4.4410   -1.1330 H         1 <0>         0.0783
     44 H7          1.1507   -4.4265   -0.2413 H         1 <0>         0.0784
     45 H8         -0.0915   -4.4364    1.9047 H         1 <0>         0.1002
     46 H9         -1.6319   -4.4509    1.0130 H         1 <0>         0.0999
     47 H10        -1.0008   -6.6042   -0.0423 H         1 <0>         0.1342
     48 H11         0.5397   -6.5897    0.8494 H         1 <0>         0.1348
     49 H12        -2.8840   -5.6779    2.3704 H         1 <0>         0.1365
     50 H13        -2.9956   -6.7578    0.9426 H         1 <0>         0.1348
     51 H14        -3.1492   -7.5099    3.9146 H         1 <0>         0.0985
     52 H15        -4.2462   -8.0033    2.5833 H         1 <0>         0.1172
     53 H16        -2.0889   -9.5498    3.4573 H         1 <0>         0.1057
     54 H17        -2.7549   -9.6279    1.7981 H         1 <0>         0.1043
     55 H18        -0.8329   -8.6965    0.9732 H         1 <0>         0.1316
     56 H19        -0.1533   -8.6535    2.6248 H         1 <0>         0.1332
     57 H20         3.4370   -2.2349   -5.9851 H         1 <0>         0.2059
     58 H21         4.0513    4.2549   -3.9836 H         1 <0>         0.1574
     59 H22         5.6171    1.5848   -1.0048 H         1 <0>         0.1623
     60 H23         5.4254    2.0671    0.9671 H         1 <0>         0.1049
     61 H24         6.7480    2.8914    0.1072 H         1 <0>         0.0958
     62 H25         4.8075    2.9606    3.4199 H         1 <0>         0.1522
     63 H26         6.1222    4.5573    5.1570 H         1 <0>         0.1556
     64 H27         8.0373    5.7392    3.8147 H         1 <0>         0.2109
     65 H28         2.2871    4.1914   -3.7182 H         1 <0>         0.1476
     66 H29        -0.7934   -6.5207    2.8887 H         1 <0>         0.4282
@<TRIPOS>BOND
     1    1    2 1
     2    1   38 1
     3    1   39 1
     4    1   40 1
     5    2    3 1
     6    3    8 ar
     7    3    4 ar
     8    4    5 ar
     9    4   41 1
    10    5   21 ar
    11    5    6 ar
    12    6    7 ar
    13    6   18 ar
    14    7    8 ar
    15    7   42 1
    16    8    9 1
    17    9   10 1
    18   10   11 1
    19   10   43 1
    20   10   44 1
    21   11   12 1
    22   11   45 1
    23   11   46 1
    24   12   13 1
    25   12   47 1
    26   12   48 1
    27   13   17 1
    28   13   14 1
    29   13   66 1
    30   14   15 1
    31   14   49 1
    32   14   50 1
    33   15   16 1
    34   15   51 1
    35   15   52 1
    36   16   17 1
    37   16   53 1
    38   16   54 1
    39   17   55 1
    40   17   56 1
    41   18   19 ar
    42   19   20 ar
    43   19   57 1
    44   20   21 ar
    45   21   22 1
    46   22   23 2
    47   23   28 1
    48   23   24 1
    49   24   58 1
    50   24   65 1
    51   24   25 1
    52   25   37 2
    53   25   26 1
    54   26   30 1
    55   26   27 2
    56   27   28 1
    57   27   59 1
    58   28   29 2
    59   30   31 1
    60   31   32 1
    61   31   60 1
    62   31   61 1
    63   32   36 1
    64   32   33 2
    65   33   34 1
    66   33   62 1
    67   34   35 2
    68   34   63 1
    69   35   36 1
    70   35   64 1
@<TRIPOS>MOLECULE
CHEMBL1076193
   67    72     0     0     0
SMALL
USER_CHARGES

@<TRIPOS>ATOM
      1 C1          2.2371    1.2924    0.6240 C.3       1 <0>        -0.1203
      2 C2          2.4081   -0.1951    0.7943 C.ar      1 <0>        -0.0972
      3 C3          3.1192   -0.9188   -0.1447 C.ar      1 <0>        -0.0962
      4 C4          3.2801   -2.2811    0.0043 C.ar      1 <0>        -0.1085
      5 C5          2.7238   -2.9334    1.1065 C.ar      1 <0>        -0.1167
      6 C6          2.0069   -2.2034    2.0542 C.ar      1 <0>        -0.0925
      7 C7          1.8554   -0.8339    1.8980 C.ar      1 <0>         0.1657
      8 N1          1.1419   -0.0965    2.8480 N.pl3     1 <0>        -0.6356
      9 C8          0.4459   -0.7472    3.8458 C.2       1 <0>         0.5390
     10 N2          0.2798   -2.0434    3.9254 N.2       1 <0>        -0.5000
     11 C9         -0.4533   -2.3447    5.0297 C.ar      1 <0>         0.0760
     12 C10        -0.9113   -3.5451    5.5783 C.ar      1 <0>        -0.0736
     13 C11        -1.6524   -3.5280    6.7388 C.ar      1 <0>        -0.1110
     14 C12        -1.9483   -2.3276    7.3673 C.ar      1 <0>        -0.1088
     15 C13        -1.5036   -1.1335    6.8377 C.ar      1 <0>        -0.0842
     16 C14        -0.7555   -1.1322    5.6708 C.ar      1 <0>         0.0557
     17 N3         -0.1698   -0.1344    4.9047 N.pl3     1 <0>        -0.4523
     18 C15        -0.2047    1.2348    5.1625 C.ar      1 <0>         0.4343
     19 C16        -0.2540    2.1480    4.1159 C.ar      1 <0>        -0.3264
     20 C17        -0.2879    3.5053    4.4257 C.ar      1 <0>         0.4710
     21 N4         -0.2719    3.8763    5.7043 N.ar      1 <0>        -0.5805
     22 C18        -0.2248    2.9789    6.6676 C.ar      1 <0>         0.3804
     23 N5         -0.1968    1.6863    6.4143 N.ar      1 <0>        -0.5668
     24 N6         -0.3371    4.4558    3.4181 N.pl3     1 <0>        -0.8265
     25 C19         2.8939   -4.3930    1.2681 C.2       1 <0>         0.5650
     26 O1          2.4088   -4.9588    2.2284 O.2       1 <0>        -0.5003
     27 N7          3.5868   -5.0963    0.3507 N.am      1 <0>        -0.6701
     28 C20         3.8295   -6.4589    0.5514 C.ar      1 <0>         0.1804
     29 C21         5.0305   -7.0203    0.1349 C.ar      1 <0>        -0.1079
     30 C22         5.2705   -8.3660    0.3329 C.ar      1 <0>        -0.1332
     31 C23         4.3177   -9.1581    0.9450 C.ar      1 <0>        -0.1032
     32 C24         3.1155   -8.6031    1.3629 C.ar      1 <0>         0.1627
     33 C25         2.8737   -7.2507    1.1717 C.ar      1 <0>        -0.1070
     34 N8          2.1491   -9.4081    1.9831 N.pl3     1 <0>        -0.4135
     35 C26         0.9218   -9.0023    2.4401 C.2       1 <0>        -0.0476
     36 C27         0.3207  -10.0890    2.9606 C.2       1 <0>         0.0097
     37 N9          1.1533  -11.1322    2.8278 N.2       1 <0>        -0.4758
     38 C28         2.2496  -10.7383    2.2392 C.2       1 <0>         0.1936
     39 C29        -1.0504  -10.1266    3.5849 C.3       1 <0>        -0.0704
     40 C30         6.5740   -8.9719   -0.1199 C.3       1 <0>         0.5135
     41 F1          7.3696   -7.9818   -0.7063 F         1 <0>        -0.1730
     42 F2          7.2430   -9.5159    0.9818 F         1 <0>        -0.1708
     43 F3          6.3194   -9.9804   -1.0554 F         1 <0>        -0.1711
     44 H1          3.0634    1.8112    1.1100 H         1 <0>         0.0778
     45 H2          2.2285    1.5379   -0.4380 H         1 <0>         0.0821
     46 H3          1.2958    1.6041    1.0766 H         1 <0>         0.0572
     47 H4          3.5499   -0.4163   -0.9981 H         1 <0>         0.1373
     48 H5          3.8360   -2.8429   -0.7317 H         1 <0>         0.1274
     49 H6          1.5743   -2.7024    2.9087 H         1 <0>         0.1973
     50 H7          1.1363    0.8726    2.8054 H         1 <0>         0.4202
     51 H8         -0.6851   -4.4834    5.0937 H         1 <0>         0.1349
     52 H9         -2.0063   -4.4563    7.1625 H         1 <0>         0.1340
     53 H10        -2.5308   -2.3275    8.2767 H         1 <0>         0.1337
     54 H11        -1.7378   -0.2019    7.3314 H         1 <0>         0.1299
     55 H12        -0.2655    1.8137    3.0890 H         1 <0>         0.1414
     56 H13        -0.2130    3.3123    7.6947 H         1 <0>         0.2110
     57 H14        -0.3481    4.1774    2.4889 H         1 <0>         0.4144
     58 H15        -0.3604    5.3993    3.6420 H         1 <0>         0.4153
     59 H16         3.9172   -4.6575   -0.4488 H         1 <0>         0.4170
     60 H17         5.7767   -6.4039   -0.3443 H         1 <0>         0.1510
     61 H18         4.5083  -10.2100    1.0980 H         1 <0>         0.1458
     62 H19         1.9414   -6.8159    1.5007 H         1 <0>         0.1601
     63 H20         0.5152   -8.0029    2.3919 H         1 <0>         0.1800
     64 H21         3.0960  -11.3645    1.9986 H         1 <0>         0.2109
     65 H22        -1.7929  -10.3472    2.8180 H         1 <0>         0.0707
     66 H23        -1.0793  -10.9005    4.3519 H         1 <0>         0.0730
     67 H24        -1.2707   -9.1592    4.0364 H         1 <0>         0.0717
@<TRIPOS>BOND
     1    1    2 1
     2    1   44 1
     3    1   45 1
     4    1   46 1
     5    2    7 ar
     6    2    3 ar
     7    3    4 ar
     8    3   47 1
     9    4    5 ar
    10    4   48 1
    11    5    6 ar
    12    5   25 1
    13    6    7 ar
    14    6   49 1
    15    7    8 1
    16    8    9 1
    17    8   50 1
    18    9   17 1
    19    9   10 2
    20   10   11 1
    21   11   16 ar
    22   11   12 ar
    23   12   13 ar
    24   12   51 1
    25   13   14 ar
    26   13   52 1
    27   14   15 ar
    28   14   53 1
    29   15   16 ar
    30   15   54 1
    31   16   17 1
    32   17   18 1
    33   18   23 ar
    34   18   19 ar
    35   19   20 ar
    36   19   55 1
    37   20   21 ar
    38   20   24 1
    39   21   22 ar
    40   22   23 ar
    41   22   56 1
    42   24   57 1
    43   24   58 1
    44   25   26 2
    45   25   27 am
    46   27   28 1
    47   27   59 1
    48   28   33 ar
    49   28   29 ar
    50   29   30 ar
    51   29   60 1
    52   30   31 ar
    53   30   40 1
    54   31   32 ar
    55   31   61 1
    56   32   33 ar
    57   32   34 1
    58   33   62 1
    59   34   38 1
    60   34   35 1
    61   35   36 2
    62   35   63 1
    63   36   37 1
    64   36   39 1
    65   37   38 2
    66   38   64 1
    67   39   65 1
    68   39   66 1
    69   39   67 1
    70   40   41 1
    71   40   42 1
    72   40   43 1
@<TRIPOS>MOLECULE
CHEMBL1076193__1
   68    73     0     0     0
SMALL
USER_CHARGES

@<TRIPOS>ATOM
      1 C1          2.2371    1.2924    0.6240 C.3       1 <0>        -0.1244
      2 C2          2.4081   -0.1951    0.7943 C.ar      1 <0>        -0.0891
      3 C3          3.1192   -0.9188   -0.1447 C.ar      1 <0>        -0.0949
      4 C4          3.2801   -2.2811    0.0043 C.ar      1 <0>        -0.1072
      5 C5          2.7238   -2.9334    1.1065 C.ar      1 <0>        -0.1270
      6 C6          2.0069   -2.2034    2.0542 C.ar      1 <0>        -0.0905
      7 C7          1.8554   -0.8339    1.8980 C.ar      1 <0>         0.1671
      8 N1          1.1419   -0.0965    2.8480 N.pl3     1 <0>        -0.6353
      9 C8          0.4459   -0.7472    3.8458 C.2       1 <0>         0.5417
     10 N2          0.2798   -2.0434    3.9254 N.2       1 <0>        -0.5058
     11 C9         -0.4533   -2.3447    5.0297 C.ar      1 <0>         0.0748
     12 C10        -0.9113   -3.5451    5.5783 C.ar      1 <0>        -0.0784
     13 C11        -1.6524   -3.5280    6.7388 C.ar      1 <0>        -0.1110
     14 C12        -1.9483   -2.3276    7.3673 C.ar      1 <0>        -0.1089
     15 C13        -1.5036   -1.1335    6.8377 C.ar      1 <0>        -0.0805
     16 C14        -0.7555   -1.1322    5.6708 C.ar      1 <0>         0.0577
     17 N3         -0.1698   -0.1344    4.9047 N.pl3     1 <0>        -0.4505
     18 C15        -0.2047    1.2348    5.1625 C.ar      1 <0>         0.4304
     19 C16        -0.2540    2.1480    4.1159 C.ar      1 <0>        -0.3263
     20 C17        -0.2879    3.5053    4.4257 C.ar      1 <0>         0.4722
     21 N4         -0.2719    3.8763    5.7043 N.ar      1 <0>        -0.5775
     22 C18        -0.2248    2.9789    6.6676 C.ar      1 <0>         0.3826
     23 N5         -0.1968    1.6863    6.4143 N.ar      1 <0>        -0.5674
     24 N6         -0.3371    4.4558    3.4181 N.pl3     1 <0>        -0.8248
     25 C19         2.8939   -4.3930    1.2681 C.2       1 <0>         0.5743
     26 O1          2.4088   -4.9588    2.2284 O.2       1 <0>        -0.5068
     27 N7          3.5868   -5.0963    0.3507 N.am      1 <0>        -0.6715
     28 C20         3.8295   -6.4589    0.5514 C.ar      1 <0>         0.1904
     29 C21         5.0305   -7.0203    0.1349 C.ar      1 <0>        -0.0739
     30 C22         5.2705   -8.3660    0.3329 C.ar      1 <0>        -0.1303
     31 C23         4.3177   -9.1581    0.9450 C.ar      1 <0>        -0.0832
     32 C24         3.1155   -8.6031    1.3629 C.ar      1 <0>         0.1074
     33 C25         2.8737   -7.2507    1.1717 C.ar      1 <0>        -0.0827
     34 N8          2.1491   -9.4081    1.9831 N.pl3     1 <0>        -0.3480
     35 C26         0.9218   -9.0023    2.4401 C.2       1 <0>         0.0253
     36 C27         0.3207  -10.0890    2.9606 C.2       1 <0>         0.0458
     37 N9          1.1533  -11.1322    2.8278 N.pl3     1 <0>        -0.4683
     38 C28         2.2496  -10.7383    2.2392 C.cat     1 <0>         0.2875
     39 C29        -1.0504  -10.1266    3.5849 C.3       1 <0>        -0.1027
     40 C30         6.5740   -8.9719   -0.1199 C.3       1 <0>         0.5129
     41 F1          7.3696   -7.9818   -0.7063 F         1 <0>        -0.1657
     42 F2          7.2430   -9.5159    0.9818 F         1 <0>        -0.1672
     43 F3          6.3194   -9.9804   -1.0554 F         1 <0>        -0.1674
     44 H1          3.0634    1.8112    1.1100 H         1 <0>         0.0810
     45 H2          2.2285    1.5379   -0.4380 H         1 <0>         0.0847
     46 H3          1.2958    1.6041    1.0766 H         1 <0>         0.0591
     47 H4          3.5499   -0.4163   -0.9981 H         1 <0>         0.1400
     48 H5          3.8360   -2.8429   -0.7317 H         1 <0>         0.1270
     49 H6          1.5743   -2.7024    2.9087 H         1 <0>         0.1976
     50 H7          1.1363    0.8726    2.8054 H         1 <0>         0.4221
     51 H8         -0.6851   -4.4834    5.0937 H         1 <0>         0.1303
     52 H9         -2.0063   -4.4563    7.1625 H         1 <0>         0.1325
     53 H10        -2.5308   -2.3275    8.2767 H         1 <0>         0.1350
     54 H11        -1.7378   -0.2019    7.3314 H         1 <0>         0.1319
     55 H12        -0.2655    1.8137    3.0890 H         1 <0>         0.1409
     56 H13        -0.2130    3.3123    7.6947 H         1 <0>         0.2124
     57 H14        -0.3481    4.1774    2.4889 H         1 <0>         0.4147
     58 H15        -0.3604    5.3993    3.6420 H         1 <0>         0.4168
     59 H16         3.9172   -4.6575   -0.4488 H         1 <0>         0.4238
     60 H17         5.7767   -6.4039   -0.3443 H         1 <0>         0.1641
     61 H18         4.5083  -10.2100    1.0980 H         1 <0>         0.1519
     62 H19         1.9414   -6.8159    1.5007 H         1 <0>         0.1690
     63 H20         0.5152   -8.0029    2.3919 H         1 <0>         0.2260
     64 H21         3.0960  -11.3645    1.9986 H         1 <0>         0.2637
     65 H22        -1.7929  -10.3472    2.8180 H         1 <0>         0.1032
     66 H23        -1.0793  -10.9005    4.3519 H         1 <0>         0.0937
     67 H24        -1.2707   -9.1592    4.0364 H         1 <0>         0.1097
     68 H25         0.9682  -12.0383    3.1203 H         1 <0>         0.4664
@<TRIPOS>BOND
     1    1    2 1
     2    1   44 1
     3    1   45 1
     4    1   46 1
     5    2    7 ar
     6    2    3 ar
     7    3    4 ar
     8    3   47 1
     9    4    5 ar
    10    4   48 1
    11    5    6 ar
    12    5   25 1
    13    6    7 ar
    14    6   49 1
    15    7    8 1
    16    8    9 1
    17    8   50 1
    18    9   17 1
    19    9   10 2
    20   10   11 1
    21   11   16 ar
    22   11   12 ar
    23   12   13 ar
    24   12   51 1
    25   13   14 ar
    26   13   52 1
    27   14   15 ar
    28   14   53 1
    29   15   16 ar
    30   15   54 1
    31   16   17 1
    32   17   18 1
    33   18   23 ar
    34   18   19 ar
    35   19   20 ar
    36   19   55 1
    37   20   21 ar
    38   20   24 1
    39   21   22 ar
    40   22   23 ar
    41   22   56 1
    42   24   57 1
    43   24   58 1
    44   25   26 2
    45   25   27 am
    46   27   28 1
    47   27   59 1
    48   28   33 ar
    49   28   29 ar
    50   29   30 ar
    51   29   60 1
    52   30   31 ar
    53   30   40 1
    54   31   32 ar
    55   31   61 1
    56   32   33 ar
    57   32   34 1
    58   33   62 1
    59   34   38 1
    60   34   35 1
    61   35   36 2
    62   35   63 1
    63   36   37 1
    64   36   39 1
    65   37   38 2
    66   37   68 1
    67   38   64 1
    68   39   65 1
    69   39   66 1
    70   39   67 1
    71   40   41 1
    72   40   42 1
    73   40   43 1
@<TRIPOS>MOLECULE
CHEMBL116324
   61    65     0     0     0
SMALL
USER_CHARGES

@<TRIPOS>ATOM
      1 C1         -0.0178    1.4648    0.0101 C.3       1 <0>        -0.0460
      2 N1          0.0021   -0.0041    0.0020 N.4       1 <0>        -0.3883
      3 C2         -1.3761   -0.5122    0.0107 C.3       1 <0>        -0.0030
      4 C3         -1.3560   -2.0421   -0.0167 C.3       1 <0>         0.0256
      5 N2         -0.6244   -2.5407    1.1564 N.3       1 <0>        -0.5391
      6 C4          0.7499   -2.0201    1.1745 C.3       1 <0>         0.0206
      7 C5          0.7125   -0.4904    1.1921 C.3       1 <0>        -0.0031
      8 C6         -0.6316   -4.0091    1.1963 C.3       1 <0>         0.0588
      9 C7         -0.0856   -4.4853    2.5439 C.3       1 <0>        -0.1329
     10 C8         -0.0931   -6.0148    2.5855 C.3       1 <0>         0.0900
     11 N3          0.4297   -6.4708    3.8758 N.am      1 <0>        -0.4974
     12 C9          1.7637   -6.6908    4.0153 C.2       1 <0>         0.1341
     13 C10         2.2790   -7.1108    5.1903 C.2       1 <0>        -0.2102
     14 C11         1.4236   -7.3264    6.2946 C.2       1 <0>         0.0709
     15 C12         0.0635   -7.0993    6.1430 C.2       1 <0>        -0.2216
     16 C13        -0.4186   -6.6590    4.9034 C.2       1 <0>         0.5176
     17 O1         -1.6123   -6.4498    4.7537 O.2       1 <0>        -0.5423
     18 C14         1.9700   -7.7876    7.5916 C.2       1 <0>        -0.1749
     19 C15         2.9250   -7.0090    8.2833 C.2       1 <0>         0.1997
     20 N4          3.4035   -7.4240    9.4311 N.2       1 <0>        -0.4466
     21 C16         3.0021   -8.5821    9.9673 C.2       1 <0>         0.2641
     22 C17         3.3467   -9.2418   11.1528 C.2       1 <0>        -0.1817
     23 C18         2.6063  -10.4289   11.1972 C.2       1 <0>         0.1139
     24 N5          1.8591  -10.5025   10.1229 N.2       1 <0>        -0.2997
     25 N6          2.0775   -9.3696    9.3310 N.pl3     1 <0>        -0.3127
     26 C19         1.5523   -8.9709    8.1386 C.2       1 <0>         0.1975
     27 C20         4.3150   -8.7716   12.1706 C.ar      1 <0>        -0.0023
     28 C21         5.5873   -8.3501   11.7845 C.ar      1 <0>        -0.0961
     29 C22         6.4847   -7.9128   12.7370 C.ar      1 <0>        -0.1186
     30 C23         6.1247   -7.8919   14.0727 C.ar      1 <0>        -0.1196
     31 C24         4.8644   -8.3092   14.4619 C.ar      1 <0>        -0.1177
     32 C25         3.9562   -8.7432   13.5180 C.ar      1 <0>        -0.1092
     33 H1          1.0047    1.8421    0.0024 H         1 <0>         0.1245
     34 H2         -0.5450    1.8259   -0.8730 H         1 <0>         0.1248
     35 H3         -0.5280    1.8163    0.9069 H         1 <0>         0.1234
     36 H4         -1.8832   -0.1716    0.9134 H         1 <0>         0.1382
     37 H5         -1.9060   -0.1400   -0.8661 H         1 <0>         0.1369
     38 H6         -2.3783   -2.4196    0.0047 H         1 <0>         0.1251
     39 H7         -0.8610   -2.3831   -0.9260 H         1 <0>         0.0616
     40 H8          1.2641   -2.3816    2.0650 H         1 <0>         0.1239
     41 H9          1.2796   -2.3607    0.2848 H         1 <0>         0.0616
     42 H10         1.7310   -0.1020    1.1912 H         1 <0>         0.1361
     43 H11         0.1947   -0.1499    2.0888 H         1 <0>         0.1378
     44 H12        -1.6519   -4.3710    1.0694 H         1 <0>         0.0947
     45 H13        -0.0057   -4.3975    0.3929 H         1 <0>         0.0510
     46 H14         0.9347   -4.1235    2.6709 H         1 <0>         0.0692
     47 H15        -0.7115   -4.0969    3.3473 H         1 <0>         0.0876
     48 H16        -1.1134   -6.3766    2.4585 H         1 <0>         0.1059
     49 H17         0.5328   -6.4032    1.7821 H         1 <0>         0.0933
     50 H18         2.4209   -6.5276    3.1740 H         1 <0>         0.1654
     51 H19         3.3411   -7.2817    5.2860 H         1 <0>         0.1521
     52 H20        -0.6135   -7.2562    6.9696 H         1 <0>         0.1533
     53 H21         3.2613   -6.0713    7.8659 H         1 <0>         0.1830
     54 H22         2.6448  -11.1642   11.9873 H         1 <0>         0.2058
     55 H23         0.8203   -9.5812    7.6306 H         1 <0>         0.1838
     56 H24         5.8695   -8.3663   10.7421 H         1 <0>         0.1181
     57 H25         7.4702   -7.5865   12.4393 H         1 <0>         0.1225
     58 H26         6.8305   -7.5487   14.8146 H         1 <0>         0.1222
     59 H27         4.5893   -8.2912   15.5061 H         1 <0>         0.1242
     60 H28         2.9710   -9.0641   13.8225 H         1 <0>         0.1220
     61 H29         0.4748   -0.3293   -0.8280 H         1 <0>         0.4223
@<TRIPOS>BOND
     1    1    2 1
     2    1   33 1
     3    1   34 1
     4    1   35 1
     5    2    7 1
     6    2    3 1
     7    2   61 1
     8    3    4 1
     9    3   36 1
    10    3   37 1
    11    4    5 1
    12    4   38 1
    13    4   39 1
    14    5    6 1
    15    5    8 1
    16    6    7 1
    17    6   40 1
    18    6   41 1
    19    7   42 1
    20    7   43 1
    21    8    9 1
    22    8   44 1
    23    8   45 1
    24    9   10 1
    25    9   46 1
    26    9   47 1
    27   10   11 1
    28   10   48 1
    29   10   49 1
    30   11   16 am
    31   11   12 1
    32   12   13 2
    33   12   50 1
    34   13   14 1
    35   13   51 1
    36   14   15 2
    37   14   18 1
    38   15   16 1
    39   15   52 1
    40   16   17 2
    41   18   26 2
    42   18   19 1
    43   19   20 2
    44   19   53 1
    45   20   21 1
    46   21   25 1
    47   21   22 2
    48   22   23 1
    49   22   27 1
    50   23   24 2
    51   23   54 1
    52   24   25 1
    53   25   26 1
    54   26   55 1
    55   27   32 ar
    56   27   28 ar
    57   28   29 ar
    58   28   56 1
    59   29   30 ar
    60   29   57 1
    61   30   31 ar
    62   30   58 1
    63   31   32 ar
    64   31   59 1
    65   32   60 1
@<TRIPOS>MOLECULE
CHEMBL116324__1
   61    65     0     0     0
SMALL
USER_CHARGES

@<TRIPOS>ATOM
      1 C1         -0.0178    1.4648    0.0101 C.3       1 <0>         0.0190
      2 N1          0.0021   -0.0041    0.0020 N.3       1 <0>        -0.5433
      3 C2         -1.3607   -0.5489   -0.0764 C.3       1 <0>         0.0233
      4 C3         -1.2932   -2.0762   -0.1426 C.3       1 <0>        -0.0017
      5 N2         -0.6107   -2.5886    1.0529 N.4       1 <0>        -0.3867
      6 C4          0.7570   -2.0553    1.1043 C.3       1 <0>        -0.0065
      7 C5          0.7065   -0.5278    1.1808 C.3       1 <0>         0.0241
      8 C6         -0.5621   -4.0557    0.9977 C.3       1 <0>        -0.0039
      9 C7          0.0360   -4.5955    2.2984 C.3       1 <0>        -0.1678
     10 C8          0.0866   -6.1236    2.2409 C.3       1 <0>         0.0962
     11 N3          0.6594   -6.6404    3.4863 N.am      1 <0>        -0.5012
     12 C9          2.0038   -6.8169    3.5799 C.2       1 <0>         0.1262
     13 C10         2.5646   -7.2908    4.7127 C.2       1 <0>        -0.2008
     14 C11         1.7468   -7.6096    5.8205 C.2       1 <0>         0.0758
     15 C12         0.3757   -7.4263    5.7158 C.2       1 <0>        -0.2216
     16 C13        -0.1545   -6.9268    4.5191 C.2       1 <0>         0.5191
     17 O1         -1.3586   -6.7551    4.4113 O.2       1 <0>        -0.5437
     18 C14         2.3434   -8.1311    7.0717 C.2       1 <0>        -0.1810
     19 C15         3.2863   -7.3618    7.7899 C.2       1 <0>         0.1986
     20 N4          3.8094   -7.8304    8.8968 N.2       1 <0>        -0.4444
     21 C16         3.4656   -9.0352    9.3660 C.2       1 <0>         0.2626
     22 C17         3.8651   -9.7554   10.4979 C.2       1 <0>        -0.1777
     23 C18         3.1709  -10.9708   10.4825 C.2       1 <0>         0.1149
     24 N5          2.3994  -11.0046    9.4235 N.2       1 <0>        -0.2984
     25 N6          2.5548   -9.8158    8.7018 N.pl3     1 <0>        -0.3137
     26 C19         1.9844   -9.3623    7.5504 C.2       1 <0>         0.2006
     27 C20         4.8413   -9.3139   11.5210 C.ar      1 <0>        -0.0046
     28 C21         6.0864   -8.8194   11.1334 C.ar      1 <0>        -0.0957
     29 C22         6.9913   -8.4093   12.0910 C.ar      1 <0>        -0.1184
     30 C23         6.6654   -8.4878   13.4332 C.ar      1 <0>        -0.1184
     31 C24         5.4321   -8.9778   13.8240 C.ar      1 <0>        -0.1175
     32 C25         4.5166   -9.3856   12.8755 C.ar      1 <0>        -0.1087
     33 H1          1.0047    1.8421    0.0024 H         1 <0>         0.0848
     34 H2         -0.5450    1.8259   -0.8730 H         1 <0>         0.0845
     35 H3         -0.5280    1.8163    0.9069 H         1 <0>         0.0400
     36 H4         -1.9242   -0.2477    0.8067 H         1 <0>         0.0610
     37 H5         -1.8539   -0.1676   -0.9705 H         1 <0>         0.1250
     38 H6         -2.3035   -2.4830   -0.1865 H         1 <0>         0.1374
     39 H7         -0.7413   -2.3773   -1.0330 H         1 <0>         0.1390
     40 H8          1.2666   -2.4465    1.9848 H         1 <0>         0.1349
     41 H9          1.2983   -2.3564    0.2075 H         1 <0>         0.1393
     42 H10         1.7215   -0.1310    1.2040 H         1 <0>         0.1242
     43 H11         0.1771   -0.2262    2.0846 H         1 <0>         0.0606
     44 H12        -1.5711   -4.4482    0.8715 H         1 <0>         0.1374
     45 H13         0.0569   -4.3674    0.1563 H         1 <0>         0.1358
     46 H14         1.0451   -4.2031    2.4246 H         1 <0>         0.0934
     47 H15        -0.5829   -4.2839    3.1397 H         1 <0>         0.0970
     48 H16        -0.9224   -6.5160    2.1146 H         1 <0>         0.1124
     49 H17         0.7056   -6.4352    1.3995 H         1 <0>         0.1040
     50 H18         2.6325   -6.5748    2.7358 H         1 <0>         0.1686
     51 H19         3.6345   -7.4261    4.7723 H         1 <0>         0.1550
     52 H20        -0.2734   -7.6620    6.5462 H         1 <0>         0.1553
     53 H21         3.5764   -6.3870    7.4264 H         1 <0>         0.1826
     54 H22         3.2573  -11.7530   11.2221 H         1 <0>         0.2067
     55 H23         1.2628   -9.9670    7.0213 H         1 <0>         0.1836
     56 H24         6.3420   -8.7580   10.0858 H         1 <0>         0.1181
     57 H25         7.9559   -8.0266   11.7921 H         1 <0>         0.1230
     58 H26         7.3770   -8.1656   14.1791 H         1 <0>         0.1227
     59 H27         5.1837   -9.0374   14.8733 H         1 <0>         0.1246
     60 H28         3.5522   -9.7634   13.1815 H         1 <0>         0.1221
     61 H29        -1.1152   -2.2999    1.8777 H         1 <0>         0.4221
@<TRIPOS>BOND
     1    1    2 1
     2    1   33 1
     3    1   34 1
     4    1   35 1
     5    2    7 1
     6    2    3 1
     7    3    4 1
     8    3   36 1
     9    3   37 1
    10    4    5 1
    11    4   38 1
    12    4   39 1
    13    5    6 1
    14    5    8 1
    15    5   61 1
    16    6    7 1
    17    6   40 1
    18    6   41 1
    19    7   42 1
    20    7   43 1
    21    8    9 1
    22    8   44 1
    23    8   45 1
    24    9   10 1
    25    9   46 1
    26    9   47 1
    27   10   11 1
    28   10   48 1
    29   10   49 1
    30   11   16 am
    31   11   12 1
    32   12   13 2
    33   12   50 1
    34   13   14 1
    35   13   51 1
    36   14   15 2
    37   14   18 1
    38   15   16 1
    39   15   52 1
    40   16   17 2
    41   18   26 2
    42   18   19 1
    43   19   20 2
    44   19   53 1
    45   20   21 1
    46   21   25 1
    47   21   22 2
    48   22   23 1
    49   22   27 1
    50   23   24 2
    51   23   54 1
    52   24   25 1
    53   25   26 1
    54   26   55 1
    55   27   32 ar
    56   27   28 ar
    57   28   29 ar
    58   28   56 1
    59   29   30 ar
    60   29   57 1
    61   30   31 ar
    62   30   58 1
    63   31   32 ar
    64   31   59 1
    65   32   60 1
@<TRIPOS>MOLECULE
CHEMBL231127
   54    58     0     0     0
SMALL
USER_CHARGES

@<TRIPOS>ATOM
      1 C1          0.0642    0.7621   -2.0899 C.3       1 <0>        -0.1178
      2 C2         -0.6426   -0.5102   -1.6988 C.ar      1 <0>        -0.0635
      3 C3         -1.5924   -1.0595   -2.5406 C.ar      1 <0>        -0.1300
      4 C4         -2.2434   -2.2264   -2.1853 C.ar      1 <0>        -0.0950
      5 C5         -1.9464   -2.8475   -0.9877 C.ar      1 <0>        -0.1249
      6 C6         -0.9929   -2.2987   -0.1405 C.ar      1 <0>         0.1560
      7 C7         -0.3370   -1.1293   -0.5028 C.ar      1 <0>        -0.1443
      8 N1         -0.6897   -2.9255    1.0733 N.am      1 <0>        -0.6760
      9 C8         -0.7375   -4.2690    1.1684 C.2       1 <0>         0.7046
     10 O1         -0.9580   -4.9410    0.1793 O.2       1 <0>        -0.5495
     11 N2         -0.5409   -4.8677    2.3598 N.am      1 <0>        -0.6854
     12 C9         -0.4887   -6.2640    2.4412 C.ar      1 <0>         0.1943
     13 C10         0.0496   -7.0002    1.3929 C.ar      1 <0>        -0.1229
     14 C11         0.1023   -8.3758    1.4705 C.ar      1 <0>        -0.0858
     15 C12        -0.3852   -9.0283    2.6024 C.ar      1 <0>        -0.1000
     16 C13        -0.9249   -8.2870    3.6532 C.ar      1 <0>        -0.0669
     17 C14        -0.9700   -6.9112    3.5727 C.ar      1 <0>        -0.1420
     18 C15        -0.3304  -10.5070    2.6885 C.2       1 <0>        -0.0424
     19 C16        -1.4586  -11.2276    2.8897 C.2       1 <0>        -0.1277
     20 S1         -0.8762  -12.9124    2.9161 S.3       1 <0>         0.2075
     21 C17         0.8508  -12.6143    2.6590 C.ar      1 <0>        -0.0565
     22 C18         0.9411  -11.2127    2.5516 C.ar      1 <0>        -0.1335
     23 C19         2.2423  -10.6899    2.3329 C.ar      1 <0>         0.5027
     24 N3          3.2885  -11.4835    2.2342 N.ar      1 <0>        -0.4960
     25 C20         3.2138  -12.8004    2.3281 C.ar      1 <0>         0.1343
     26 C21         1.9864  -13.4153    2.5531 C.ar      1 <0>        -0.0062
     27 C22         1.8860  -14.8905    2.6604 C.ar      1 <0>        -0.1897
     28 C23         1.1960  -15.4886    3.7187 C.ar      1 <0>         0.1822
     29 N4          1.1311  -16.8076    3.7760 N.ar      1 <0>        -0.5057
     30 C24         1.7049  -17.5553    2.8542 C.ar      1 <0>         0.3248
     31 N5          2.3651  -17.0323    1.8400 N.ar      1 <0>        -0.5080
     32 C25         2.4740  -15.7220    1.7029 C.ar      1 <0>         0.1832
     33 N6          2.4151   -9.3181    2.2207 N.pl3     1 <0>        -0.8220
     34 H1          0.9639    0.5189   -2.6551 H         1 <0>         0.0736
     35 H2         -0.5980    1.3711   -2.7052 H         1 <0>         0.0713
     36 H3          0.3379    1.3164   -1.1921 H         1 <0>         0.0680
     37 H4         -1.8265   -0.5758   -3.4775 H         1 <0>         0.1265
     38 H5         -2.9852   -2.6525   -2.8445 H         1 <0>         0.1282
     39 H6         -2.4555   -3.7587   -0.7105 H         1 <0>         0.1337
     40 H7          0.4080   -0.7022    0.1521 H         1 <0>         0.1256
     41 H8         -0.4452   -2.3929    1.8463 H         1 <0>         0.4104
     42 H9         -0.4356   -4.3309    3.1608 H         1 <0>         0.4140
     43 H10         0.4267   -6.4944    0.5163 H         1 <0>         0.1471
     44 H11         0.5205   -8.9475    0.6552 H         1 <0>         0.1300
     45 H12        -1.3035   -8.7898    4.5308 H         1 <0>         0.1380
     46 H13        -1.3835   -6.3363    4.3881 H         1 <0>         0.1392
     47 H14        -2.4701  -10.8676    3.0065 H         1 <0>         0.2147
     48 H15         4.1082  -13.3989    2.2379 H         1 <0>         0.2154
     49 H16         0.7237  -14.8826    4.4778 H         1 <0>         0.1710
     50 H17         1.6322  -18.6300    2.9326 H         1 <0>         0.2101
     51 H18         3.0122  -15.3008    0.8667 H         1 <0>         0.1757
     52 H19         1.7973   -8.7138    2.6611 H         1 <0>         0.4404
     53 H20         3.1537   -8.9631    1.7017 H         1 <0>         0.4225
     54 H21         4.1586  -11.0815    2.0847 H         1 <0>         0.4468
@<TRIPOS>BOND
     1    1    2 1
     2    1   34 1
     3    1   35 1
     4    1   36 1
     5    2    7 ar
     6    2    3 ar
     7    3    4 ar
     8    3   37 1
     9    4    5 ar
    10    4   38 1
    11    5    6 ar
    12    5   39 1
    13    6    7 ar
    14    6    8 1
    15    7   40 1
    16    8    9 am
    17    8   41 1
    18    9   10 2
    19    9   11 am
    20   11   12 1
    21   11   42 1
    22   12   17 ar
    23   12   13 ar
    24   13   14 ar
    25   13   43 1
    26   14   15 ar
    27   14   44 1
    28   15   16 ar
    29   15   18 1
    30   16   17 ar
    31   16   45 1
    32   17   46 1
    33   18   22 1
    34   18   19 2
    35   19   20 1
    36   19   47 1
    37   20   21 1
    38   21   26 ar
    39   21   22 ar
    40   22   23 ar
    41   23   24 ar
    42   23   33 1
    43   24   25 ar
    44   24   54 1
    45   25   26 ar
    46   25   48 1
    47   26   27 1
    48   27   32 ar
    49   27   28 ar
    50   28   29 ar
    51   28   49 1
    52   29   30 ar
    53   30   31 ar
    54   30   50 1
    55   31   32 ar
    56   32   51 1
    57   33   52 1
    58   33   53 1
@<TRIPOS>MOLECULE
CHEMBL231127__1
   53    57     0     0     0
SMALL
USER_CHARGES

@<TRIPOS>ATOM
      1 C1          0.0627    0.7623   -2.0885 C.3       1 <0>        -0.1157
      2 C2         -0.6440   -0.5099   -1.6971 C.ar      1 <0>        -0.0660
      3 C3         -1.5942   -1.0592   -2.5386 C.ar      1 <0>        -0.1343
      4 C4         -2.2451   -2.2260   -2.1830 C.ar      1 <0>        -0.0952
      5 C5         -1.9475   -2.8472   -0.9856 C.ar      1 <0>        -0.1250
      6 C6         -0.9937   -2.2985   -0.1388 C.ar      1 <0>         0.1632
      7 C7         -0.3379   -1.1290   -0.5013 C.ar      1 <0>        -0.1467
      8 N1         -0.6900   -2.9253    1.0749 N.am      1 <0>        -0.6806
      9 C8         -0.7378   -4.2689    1.1699 C.2       1 <0>         0.7037
     10 O1         -0.9587   -4.9408    0.1809 O.2       1 <0>        -0.5494
     11 N2         -0.5407   -4.8676    2.3612 N.am      1 <0>        -0.6825
     12 C9         -0.4885   -6.2639    2.4425 C.ar      1 <0>         0.1736
     13 C10         0.0493   -7.0000    1.3939 C.ar      1 <0>        -0.1223
     14 C11         0.1020   -8.3757    1.4714 C.ar      1 <0>        -0.0738
     15 C12        -0.3851   -9.0282    2.6036 C.ar      1 <0>        -0.0687
     16 C13        -0.9243   -8.2869    3.6545 C.ar      1 <0>        -0.0781
     17 C14        -0.9693   -6.9111    3.5742 C.ar      1 <0>        -0.1453
     18 C15        -0.3302  -10.5070    2.6895 C.2       1 <0>        -0.0413
     19 C16        -1.4584  -11.2275    2.8912 C.2       1 <0>        -0.1576
     20 S1         -0.8761  -12.9124    2.9172 S.3       1 <0>         0.0727
     21 C17         0.8508  -12.6143    2.6595 C.ar      1 <0>        -0.0395
     22 C18         0.9412  -11.2126    2.5521 C.ar      1 <0>        -0.1802
     23 C19         2.2423  -10.6899    2.3329 C.ar      1 <0>         0.4653
     24 N3          3.2885  -11.4835    2.2338 N.ar      1 <0>        -0.5439
     25 C20         3.2138  -12.8004    2.3280 C.ar      1 <0>         0.1885
     26 C21         1.9863  -13.4153    2.5531 C.ar      1 <0>        -0.1149
     27 C22         1.8860  -14.8905    2.6603 C.ar      1 <0>        -0.1374
     28 C23         1.1964  -15.4886    3.7189 C.ar      1 <0>         0.1608
     29 N4          1.1315  -16.8076    3.7761 N.ar      1 <0>        -0.5123
     30 C24         1.7049  -17.5553    2.8541 C.ar      1 <0>         0.2923
     31 N5          2.3647  -17.0322    1.8397 N.ar      1 <0>        -0.5135
     32 C25         2.4735  -15.7220    1.7025 C.ar      1 <0>         0.1618
     33 N6          2.4151   -9.3181    2.2207 N.pl3     1 <0>        -0.8471
     34 H1          0.9621    0.5192   -2.6541 H         1 <0>         0.0724
     35 H2         -0.5998    1.3715   -2.7035 H         1 <0>         0.0691
     36 H3          0.3368    1.3166   -1.1908 H         1 <0>         0.0667
     37 H4         -1.8286   -0.5754   -3.4753 H         1 <0>         0.1241
     38 H5         -2.9872   -2.6521   -2.8419 H         1 <0>         0.1268
     39 H6         -2.4565   -3.7584   -0.7082 H         1 <0>         0.1350
     40 H7          0.4074   -0.7020    0.1533 H         1 <0>         0.1249
     41 H8         -0.4451   -2.3928    1.8478 H         1 <0>         0.4088
     42 H9         -0.4351   -4.3308    3.1622 H         1 <0>         0.4101
     43 H10         0.4261   -6.4942    0.5172 H         1 <0>         0.1410
     44 H11         0.5198   -8.9474    0.6559 H         1 <0>         0.1305
     45 H12        -1.3025   -8.7898    4.5323 H         1 <0>         0.1322
     46 H13        -1.3824   -6.3363    4.3898 H         1 <0>         0.1312
     47 H14        -2.4699  -10.8675    3.0083 H         1 <0>         0.1938
     48 H15         4.1082  -13.3990    2.2378 H         1 <0>         0.1699
     49 H16         0.7244  -14.8826    4.4782 H         1 <0>         0.1659
     50 H17         1.6322  -18.6300    2.9324 H         1 <0>         0.1990
     51 H18         3.0114  -15.3007    0.8661 H         1 <0>         0.1710
     52 H19         1.7973   -8.7138    2.6611 H         1 <0>         0.4121
     53 H20         3.1537   -8.9631    1.7017 H         1 <0>         0.4049
@<TRIPOS>BOND
     1    1    2 1
     2    1   34 1
     3    1   35 1
     4    1   36 1
     5    2    7 ar
     6    2    3 ar
     7    3    4 ar
     8    3   37 1
     9    4    5 ar
    10    4   38 1
    11    5    6 ar
    12    5   39 1
    13    6    7 ar
    14    6    8 1
    15    7   40 1
    16    8    9 am
    17    8   41 1
    18    9   10 2
    19    9   11 am
    20   11   12 1
    21   11   42 1
    22   12   17 ar
    23   12   13 ar
    24   13   14 ar
    25   13   43 1
    26   14   15 ar
    27   14   44 1
    28   15   16 ar
    29   15   18 1
    30   16   17 ar
    31   16   45 1
    32   17   46 1
    33   18   22 1
    34   18   19 2
    35   19   20 1
    36   19   47 1
    37   20   21 1
    38   21   26 ar
    39   21   22 ar
    40   22   23 ar
    41   23   24 ar
    42   23   33 1
    43   24   25 ar
    44   25   26 ar
    45   25   48 1
    46   26   27 1
    47   27   32 ar
    48   27   28 ar
    49   28   29 ar
    50   28   49 1
    51   29   30 ar
    52   30   31 ar
    53   30   50 1
    54   31   32 ar
    55   32   51 1
    56   33   52 1
    57   33   53 1
@<TRIPOS>MOLECULE
CHEMBL206146
   58    62     0     0     0
SMALL
USER_CHARGES

@<TRIPOS>ATOM
      1 C1          2.3742    0.3628    2.1722 C.3       1 <0>        -0.0985
      2 C2          1.6796   -0.8000    1.5117 C.2       1 <0>         0.0920
      3 C3          2.2981   -1.8653    0.9789 C.2       1 <0>        -0.1896
      4 C4          1.2544   -2.7468    0.4494 C.ar      1 <0>        -0.1343
      5 C5          0.0310   -2.1083    0.7202 C.ar      1 <0>         0.1356
      6 N1          0.3242   -0.9291    1.3716 N.pl3     1 <0>        -0.5849
      7 H1         -0.3321   -0.2860    1.6825 H         1 <0>         0.4222
      8 C6         -1.1592   -2.7133    0.3303 C.ar      1 <0>        -0.1201
      9 C7         -1.1350   -3.9295   -0.3159 C.ar      1 <0>        -0.0634
     10 C8          0.0734   -4.5651   -0.5861 C.ar      1 <0>         0.0135
     11 C9          1.2681   -3.9803   -0.2072 C.ar      1 <0>         0.1631
     12 F1          2.4407   -4.5976   -0.4701 F         1 <0>        -0.1259
     13 O1          0.0794   -5.7660   -1.2251 O.3       1 <0>        -0.2094
     14 C10         0.2039   -6.8849   -0.4739 C.2       1 <0>         0.4665
     15 C11         0.3364   -8.1476   -1.0907 C.2       1 <0>        -0.0609
     16 C12         0.3743   -8.5699   -2.4066 C.2       1 <0>        -0.0757
     17 C13         0.5237   -9.9598   -2.3850 C.2       1 <0>         0.0496
     18 C14         0.5735  -10.3552   -1.0817 C.2       1 <0>        -0.0084
     19 N2          0.4610   -9.2653   -0.2870 N.pl3     1 <0>        -0.2269
     20 N3          0.4504   -9.0890    1.1038 N.2       1 <0>        -0.3320
     21 C15         0.3251   -7.8922    1.6085 C.2       1 <0>         0.3329
     22 N4          0.2082   -6.8072    0.8448 N.2       1 <0>        -0.5942
     23 O2          0.6046  -10.7741   -3.4731 O.3       1 <0>        -0.2869
     24 C16         0.7563  -12.1734   -3.2264 C.3       1 <0>         0.0617
     25 C17         0.8286  -12.9214   -4.5591 C.3       1 <0>        -0.1484
     26 C18         0.9911  -14.4196   -4.2950 C.3       1 <0>        -0.0016
     27 N5          1.0604  -15.1378   -5.5746 N.4       1 <0>        -0.3935
     28 C19         2.3267  -14.8094   -6.2782 C.3       1 <0>        -0.0089
     29 C20         2.5128  -16.0029   -7.2485 C.3       1 <0>        -0.1459
     30 C21         2.0134  -17.2062   -6.4163 C.3       1 <0>        -0.1457
     31 C22         1.0969  -16.5974   -5.3389 C.3       1 <0>        -0.0082
     32 C23         0.2733   -7.6979   -3.6315 C.3       1 <0>        -0.0842
     33 H2          2.4940    0.1578    3.2361 H         1 <0>         0.0832
     34 H3          3.3542    0.5067    1.7173 H         1 <0>         0.0899
     35 H4          1.7768    1.2650    2.0411 H         1 <0>         0.0734
     36 H5          3.3635   -2.0396    0.9465 H         1 <0>         0.1533
     37 H6         -2.1029   -2.2294    0.5346 H         1 <0>         0.1396
     38 H7         -2.0625   -4.3946   -0.6155 H         1 <0>         0.1448
     39 H8          0.6845  -11.3732   -0.7386 H         1 <0>         0.1804
     40 H9          0.3188   -7.7772    2.6824 H         1 <0>         0.2278
     41 H10         1.6733  -12.3456   -2.6629 H         1 <0>         0.0705
     42 H11        -0.0964  -12.5357   -2.6522 H         1 <0>         0.0708
     43 H12        -0.0884  -12.7491   -5.1226 H         1 <0>         0.0992
     44 H13         1.6813  -12.5591   -5.1333 H         1 <0>         0.0987
     45 H14         1.9081  -14.5918   -3.7315 H         1 <0>         0.1330
     46 H15         0.1383  -14.7819   -3.7208 H         1 <0>         0.1337
     47 H16         2.2283  -13.8755   -6.8315 H         1 <0>         0.1368
     48 H17         3.1557  -14.7543   -5.5726 H         1 <0>         0.1346
     49 H18         1.9026  -15.8722   -8.1422 H         1 <0>         0.0985
     50 H19         3.5634  -16.1256   -7.5120 H         1 <0>         0.1169
     51 H20         1.4506  -17.8947   -7.0467 H         1 <0>         0.1054
     52 H21         2.8548  -17.7197   -5.9511 H         1 <0>         0.1039
     53 H22         1.5012  -16.8035   -4.3478 H         1 <0>         0.1311
     54 H23         0.0931  -17.0130   -5.4272 H         1 <0>         0.1329
     55 H24         1.2706   -7.3775   -3.9328 H         1 <0>         0.0746
     56 H25        -0.1874   -8.2622   -4.4423 H         1 <0>         0.0735
     57 H26        -0.3365   -6.8231   -3.4055 H         1 <0>         0.0755
     58 H27         0.2683  -14.8982   -6.1518 H         1 <0>         0.4283
@<TRIPOS>BOND
     1    1    2 1
     2    1   33 1
     3    1   34 1
     4    1   35 1
     5    2    6 1
     6    2    3 2
     7    3    4 1
     8    3   36 1
     9    4   11 ar
    10    4    5 ar
    11    5    6 1
    12    5    8 ar
    13    6    7 1
    14    8    9 ar
    15    8   37 1
    16    9   10 ar
    17    9   38 1
    18   10   11 ar
    19   10   13 1
    20   11   12 1
    21   13   14 1
    22   14   22 2
    23   14   15 1
    24   15   19 1
    25   15   16 2
    26   16   17 1
    27   16   32 1
    28   17   18 2
    29   17   23 1
    30   18   19 1
    31   18   39 1
    32   19   20 1
    33   20   21 2
    34   21   22 1
    35   21   40 1
    36   23   24 1
    37   24   25 1
    38   24   41 1
    39   24   42 1
    40   25   26 1
    41   25   43 1
    42   25   44 1
    43   26   27 1
    44   26   45 1
    45   26   46 1
    46   27   31 1
    47   27   28 1
    48   27   58 1
    49   28   29 1
    50   28   47 1
    51   28   48 1
    52   29   30 1
    53   29   49 1
    54   29   50 1
    55   30   31 1
    56   30   51 1
    57   30   52 1
    58   31   53 1
    59   31   54 1
    60   32   55 1
    61   32   56 1
    62   32   57 1
@<TRIPOS>MOLECULE
CHEMBL268826
   55    59     0     0     0
SMALL
USER_CHARGES

@<TRIPOS>ATOM
      1 C1          0.0666    0.7616   -2.0921 C.3       1 <0>        -0.1178
      2 C2         -0.6404   -0.5105   -1.7011 C.ar      1 <0>        -0.0635
      3 C3         -1.5900   -1.0599   -2.5432 C.ar      1 <0>        -0.1301
      4 C4         -2.2412   -2.2266   -2.1879 C.ar      1 <0>        -0.0950
      5 C5         -1.9447   -2.8476   -0.9901 C.ar      1 <0>        -0.1249
      6 C6         -0.9915   -2.2987   -0.1426 C.ar      1 <0>         0.1560
      7 C7         -0.3354   -1.1294   -0.5049 C.ar      1 <0>        -0.1443
      8 N1         -0.6888   -2.9253    1.0714 N.am      1 <0>        -0.6761
      9 C8         -0.7369   -4.2688    1.1668 C.2       1 <0>         0.7046
     10 O1         -0.9573   -4.9410    0.1778 O.2       1 <0>        -0.5496
     11 N2         -0.5407   -4.8673    2.3584 N.am      1 <0>        -0.6854
     12 C9         -0.4886   -6.2636    2.4401 C.ar      1 <0>         0.1939
     13 C10         0.0497   -7.0000    1.3919 C.ar      1 <0>        -0.1227
     14 C11         0.1018   -8.3757    1.4696 C.ar      1 <0>        -0.0860
     15 C12        -0.3860   -9.0278    2.6016 C.ar      1 <0>        -0.0993
     16 C13        -0.9253   -8.2862    3.6523 C.ar      1 <0>        -0.0672
     17 C14        -0.9702   -6.9104    3.5716 C.ar      1 <0>        -0.1419
     18 C15        -0.3318  -10.5066    2.6878 C.2       1 <0>        -0.0430
     19 C16        -1.4603  -11.2266    2.8889 C.2       1 <0>        -0.1312
     20 S1         -0.8787  -12.9117    2.9154 S.3       1 <0>         0.2133
     21 C17         0.8485  -12.6144    2.6586 C.ar      1 <0>        -0.0535
     22 C18         0.9394  -11.2128    2.5511 C.ar      1 <0>        -0.1362
     23 C19         2.2408  -10.6907    2.3321 C.ar      1 <0>         0.5020
     24 N3          3.2871  -11.4848    2.2327 N.ar      1 <0>        -0.4969
     25 C20         3.2123  -12.8011    2.3269 C.ar      1 <0>         0.1362
     26 C21         1.9843  -13.4161    2.5532 C.ar      1 <0>        -0.0181
     27 C22         1.8837  -14.8901    2.6608 C.ar      1 <0>        -0.0282
     28 C23         1.1927  -15.4879    3.7202 C.ar      1 <0>        -0.1519
     29 C24         1.1232  -16.8637    3.7817 C.ar      1 <0>         0.1169
     30 N4          1.6976  -17.6130    2.8595 N.ar      1 <0>        -0.4665
     31 C25         2.3587  -17.0895    1.8444 C.ar      1 <0>         0.1149
     32 C26         2.4722  -15.7225    1.7028 C.ar      1 <0>        -0.1508
     33 N5          2.4140   -9.3198    2.2203 N.pl3     1 <0>        -0.8223
     34 H1          0.9665    0.5182   -2.6570 H         1 <0>         0.0736
     35 H2         -0.5953    1.3706   -2.7078 H         1 <0>         0.0713
     36 H3          0.3400    1.3160   -1.1944 H         1 <0>         0.0679
     37 H4         -1.8236   -0.5764   -3.4802 H         1 <0>         0.1265
     38 H5         -2.9828   -2.6528   -2.8473 H         1 <0>         0.1282
     39 H6         -2.4540   -3.7587   -0.7129 H         1 <0>         0.1337
     40 H7          0.4094   -0.7023    0.1503 H         1 <0>         0.1256
     41 H8         -0.4445   -2.3926    1.8444 H         1 <0>         0.4104
     42 H9         -0.4355   -4.3303    3.1593 H         1 <0>         0.4140
     43 H10         0.4273   -6.4944    0.5154 H         1 <0>         0.1471
     44 H11         0.5196   -8.9476    0.6543 H         1 <0>         0.1298
     45 H12        -1.3037   -8.7888    4.5302 H         1 <0>         0.1378
     46 H13        -1.3837   -6.3354    4.3869 H         1 <0>         0.1392
     47 H14        -2.4717  -10.8662    3.0058 H         1 <0>         0.2142
     48 H15         4.1067  -13.3998    2.2369 H         1 <0>         0.2157
     49 H16         0.7209  -14.8809    4.4787 H         1 <0>         0.1403
     50 H17         0.5920  -17.3345    4.5956 H         1 <0>         0.1685
     51 H18         2.8134  -17.7405    1.1123 H         1 <0>         0.1683
     52 H19         3.0111  -15.3009    0.8672 H         1 <0>         0.1435
     53 H20         1.7968   -8.7154    2.6615 H         1 <0>         0.4403
     54 H21         3.1525   -8.9650    1.7010 H         1 <0>         0.4222
     55 H22         4.1571  -11.0830    2.0823 H         1 <0>         0.4463
@<TRIPOS>BOND
     1    1    2 1
     2    1   34 1
     3    1   35 1
     4    1   36 1
     5    2    7 ar
     6    2    3 ar
     7    3    4 ar
     8    3   37 1
     9    4    5 ar
    10    4   38 1
    11    5    6 ar
    12    5   39 1
    13    6    7 ar
    14    6    8 1
    15    7   40 1
    16    8    9 am
    17    8   41 1
    18    9   10 2
    19    9   11 am
    20   11   12 1
    21   11   42 1
    22   12   17 ar
    23   12   13 ar
    24   13   14 ar
    25   13   43 1
    26   14   15 ar
    27   14   44 1
    28   15   16 ar
    29   15   18 1
    30   16   17 ar
    31   16   45 1
    32   17   46 1
    33   18   22 1
    34   18   19 2
    35   19   20 1
    36   19   47 1
    37   20   21 1
    38   21   26 ar
    39   21   22 ar
    40   22   23 ar
    41   23   24 ar
    42   23   33 1
    43   24   25 ar
    44   24   55 1
    45   25   26 ar
    46   25   48 1
    47   26   27 1
    48   27   32 ar
    49   27   28 ar
    50   28   29 ar
    51   28   49 1
    52   29   30 ar
    53   29   50 1
    54   30   31 ar
    55   31   32 ar
    56   31   51 1
    57   32   52 1
    58   33   53 1
    59   33   54 1
@<TRIPOS>MOLECULE
CHEMBL268826__1
   54    58     0     0     0
SMALL
USER_CHARGES

@<TRIPOS>ATOM
      1 C1          0.0651    0.7619   -2.0907 C.3       1 <0>        -0.1156
      2 C2         -0.6418   -0.5102   -1.6994 C.ar      1 <0>        -0.0660
      3 C3         -1.5918   -1.0596   -2.5411 C.ar      1 <0>        -0.1343
      4 C4         -2.2429   -2.2263   -2.1856 C.ar      1 <0>        -0.0952
      5 C5         -1.9459   -2.8472   -0.9880 C.ar      1 <0>        -0.1250
      6 C6         -0.9923   -2.2985   -0.1409 C.ar      1 <0>         0.1632
      7 C7         -0.3363   -1.1292   -0.5034 C.ar      1 <0>        -0.1467
      8 N1         -0.6891   -2.9251    1.0730 N.am      1 <0>        -0.6806
      9 C8         -0.7372   -4.2686    1.1683 C.2       1 <0>         0.7036
     10 O1         -0.9580   -4.9408    0.1794 O.2       1 <0>        -0.5495
     11 N2         -0.5405   -4.8672    2.3598 N.am      1 <0>        -0.6824
     12 C9         -0.4884   -6.2635    2.4414 C.ar      1 <0>         0.1732
     13 C10         0.0494   -6.9999    1.3930 C.ar      1 <0>        -0.1222
     14 C11         0.1015   -8.3756    1.4705 C.ar      1 <0>        -0.0739
     15 C12        -0.3858   -9.0278    2.6028 C.ar      1 <0>        -0.0680
     16 C13        -0.9247   -8.2862    3.6537 C.ar      1 <0>        -0.0784
     17 C14        -0.9695   -6.9104    3.5731 C.ar      1 <0>        -0.1452
     18 C15        -0.3316  -10.5066    2.6888 C.2       1 <0>        -0.0418
     19 C16        -1.4601  -11.2265    2.8903 C.2       1 <0>        -0.1609
     20 S1         -0.8785  -12.9117    2.9166 S.3       1 <0>         0.0775
     21 C17         0.8485  -12.6144    2.6590 C.ar      1 <0>        -0.0370
     22 C18         0.9395  -11.2128    2.5516 C.ar      1 <0>        -0.1828
     23 C19         2.2408  -10.6907    2.3321 C.ar      1 <0>         0.4644
     24 N3          3.2870  -11.4849    2.2322 N.ar      1 <0>        -0.5456
     25 C20         3.2123  -12.8011    2.3264 C.ar      1 <0>         0.1892
     26 C21         1.9843  -13.4161    2.5531 C.ar      1 <0>        -0.1249
     27 C22         1.8837  -14.8901    2.6608 C.ar      1 <0>         0.0133
     28 C23         1.1931  -15.4879    3.7204 C.ar      1 <0>        -0.1629
     29 C24         1.1236  -16.8638    3.7818 C.ar      1 <0>         0.1057
     30 N4          1.6975  -17.6130    2.8594 N.ar      1 <0>        -0.4863
     31 C25         2.3583  -17.0895    1.8440 C.ar      1 <0>         0.1044
     32 C26         2.4718  -15.7225    1.7025 C.ar      1 <0>        -0.1622
     33 N5          2.4140   -9.3198    2.2203 N.pl3     1 <0>        -0.8472
     34 H1          0.9647    0.5185   -2.6560 H         1 <0>         0.0724
     35 H2         -0.5970    1.3710   -2.7061 H         1 <0>         0.0691
     36 H3          0.3389    1.3163   -1.1931 H         1 <0>         0.0667
     37 H4         -1.8258   -0.5759   -3.4780 H         1 <0>         0.1241
     38 H5         -2.9848   -2.6524   -2.8447 H         1 <0>         0.1268
     39 H6         -2.4551   -3.7584   -0.7106 H         1 <0>         0.1350
     40 H7          0.4088   -0.7021    0.1514 H         1 <0>         0.1248
     41 H8         -0.4444   -2.3925    1.8459 H         1 <0>         0.4088
     42 H9         -0.4350   -4.3303    3.1607 H         1 <0>         0.4100
     43 H10         0.4266   -6.4943    0.5164 H         1 <0>         0.1409
     44 H11         0.5189   -8.9475    0.6551 H         1 <0>         0.1302
     45 H12        -1.3027   -8.7888    4.5317 H         1 <0>         0.1320
     46 H13        -1.3827   -6.3353    4.3886 H         1 <0>         0.1312
     47 H14        -2.4714  -10.8661    3.0076 H         1 <0>         0.1932
     48 H15         4.1065  -13.3998    2.2360 H         1 <0>         0.1699
     49 H16         0.7216  -14.8809    4.4791 H         1 <0>         0.1341
     50 H17         0.5927  -17.3345    4.5960 H         1 <0>         0.1581
     51 H18         2.8127  -17.7405    1.1117 H         1 <0>         0.1587
     52 H19         3.0104  -15.3009    0.8667 H         1 <0>         0.1377
     53 H20         1.7968   -8.7154    2.6615 H         1 <0>         0.4119
     54 H21         3.1525   -8.9650    1.7010 H         1 <0>         0.4046
@<TRIPOS>BOND
     1    1    2 1
     2    1   34 1
     3    1   35 1
     4    1   36 1
     5    2    7 ar
     6    2    3 ar
     7    3    4 ar
     8    3   37 1
     9    4    5 ar
    10    4   38 1
    11    5    6 ar
    12    5   39 1
    13    6    7 ar
    14    6    8 1
    15    7   40 1
    16    8    9 am
    17    8   41 1
    18    9   10 2
    19    9   11 am
    20   11   12 1
    21   11   42 1
    22   12   17 ar
    23   12   13 ar
    24   13   14 ar
    25   13   43 1
    26   14   15 ar
    27   14   44 1
    28   15   16 ar
    29   15   18 1
    30   16   17 ar
    31   16   45 1
    32   17   46 1
    33   18   22 1
    34   18   19 2
    35   19   20 1
    36   19   47 1
    37   20   21 1
    38   21   26 ar
    39   21   22 ar
    40   22   23 ar
    41   23   24 ar
    42   23   33 1
    43   24   25 ar
    44   25   26 ar
    45   25   48 1
    46   26   27 1
    47   27   32 ar
    48   27   28 ar
    49   28   29 ar
    50   28   49 1
    51   29   30 ar
    52   29   50 1
    53   30   31 ar
    54   31   32 ar
    55   31   51 1
    56   32   52 1
    57   33   53 1
    58   33   54 1
@<TRIPOS>MOLECULE
CHEMBL270368
   71    76     0     0     0
SMALL
USER_CHARGES

@<TRIPOS>ATOM
      1 C1         -0.6423    1.7717   -0.1526 C.3       1 <0>        -0.1562
      2 C2         -0.2412    0.2952   -0.1600 C.3       1 <0>        -0.0255
      3 C3          0.7229    0.0228    0.9963 C.3       1 <0>        -0.1556
      4 C4         -1.4715   -0.5603   -0.0004 C.2       1 <0>        -0.0116
      5 C5         -2.3713   -0.5422    1.0823 C.2       1 <0>        -0.1029
      6 C6         -3.3505   -1.4830    0.8196 C.2       1 <0>         0.1186
      7 N1         -3.0855   -2.0642   -0.3632 N.pl3     1 <0>        -0.2263
      8 C7         -1.9351   -1.5066   -0.8892 C.2       1 <0>        -0.1047
      9 C8         -1.4725   -1.9711   -2.1443 C.2       1 <0>         0.5378
     10 N2         -2.1519   -2.9156   -2.7733 N.2       1 <0>        -0.6178
     11 C9         -3.2607   -3.4406   -2.2552 C.2       1 <0>         0.3409
     12 N3         -3.7366   -3.0645   -1.1002 N.2       1 <0>        -0.3443
     13 N4         -0.3262   -1.4441   -2.7049 N.pl3     1 <0>        -0.6127
     14 C10         0.0513   -1.8112   -4.0027 C.ar      1 <0>         0.0934
     15 C11        -0.8879   -2.3347   -4.8739 C.ar      1 <0>        -0.0394
     16 C12        -0.5081   -2.6993   -6.1677 C.ar      1 <0>        -0.1634
     17 C13         0.8199   -2.5330   -6.5749 C.ar      1 <0>         0.1840
     18 C14         1.7502   -2.0092   -5.6971 C.ar      1 <0>        -0.1766
     19 C15         1.3706   -1.6437   -4.4175 C.ar      1 <0>         0.1340
     20 F1          2.2835   -1.1271   -3.5660 F         1 <0>        -0.1203
     21 F2          1.1928   -2.8844   -7.8249 F         1 <0>        -0.0995
     22 C16        -1.5044   -3.2587   -7.1018 C.2       1 <0>         0.5666
     23 O1         -1.1716   -3.5754   -8.2275 O.2       1 <0>        -0.5124
     24 N5         -2.7831   -3.4184   -6.7070 N.am      1 <0>        -0.6949
     25 C17        -3.7721   -3.9736   -7.6343 C.3       1 <0>         0.0776
     26 C18        -5.1435   -3.2978   -7.6925 C.3       1 <0>        -0.1917
     27 C19        -4.9939   -4.6693   -7.0308 C.3       1 <0>        -0.1857
     28 C20        -2.2852    0.3219    2.2787 C.2       1 <0>         0.2608
     29 N6         -1.3599    1.2171    2.5251 N.2       1 <0>        -0.2434
     30 N7         -1.6012    1.7800    3.6565 N.2       1 <0>        -0.3141
     31 C21        -2.6877    1.2675    4.1763 C.2       1 <0>         0.3482
     32 O2         -3.1484    0.3391    3.3171 O.3       1 <0>        -0.2077
     33 O3         -3.2489    1.6120    5.3596 O.3       1 <0>        -0.2659
     34 C22        -2.5944    2.6332    6.1151 C.3       1 <0>         0.0770
     35 C23        -3.3683    2.8843    7.4108 C.3       1 <0>        -0.1006
     36 C24        -4.7483    3.4599    7.0797 C.3       1 <0>        -0.1479
     37 C25        -5.4859    3.7828    8.3809 C.3       1 <0>        -0.0063
     38 N8         -4.7164    4.7659    9.1528 N.4       1 <0>        -0.5070
     39 C26        -3.4197    4.1943    9.5353 C.3       1 <0>        -0.0036
     40 C27        -2.6026    3.8873    8.2785 C.3       1 <0>        -0.1422
     41 H1          0.2476    2.3905   -0.2680 H         1 <0>         0.0670
     42 H2         -1.3292    1.9658   -0.9763 H         1 <0>         0.0504
     43 H3         -1.1310    2.0107    0.7920 H         1 <0>         0.0878
     44 H4          0.2474    0.0562   -1.1046 H         1 <0>         0.0622
     45 H5          0.2343    0.2618    1.9408 H         1 <0>         0.0858
     46 H6          1.0087   -1.0291    0.9910 H         1 <0>         0.0512
     47 H7          1.6128    0.6416    0.8808 H         1 <0>         0.0677
     48 H8         -4.1896   -1.7130    1.4595 H         1 <0>         0.1948
     49 H9         -3.7803   -4.2097   -2.8073 H         1 <0>         0.2277
     50 H10         0.2178   -0.8196   -2.1999 H         1 <0>         0.4299
     51 H11        -1.9117   -2.4613   -4.5542 H         1 <0>         0.1825
     52 H12         2.7753   -1.8810   -6.0120 H         1 <0>         0.1671
     53 H13        -3.0486   -3.1657   -5.8090 H         1 <0>         0.4010
     54 H14        -3.3703   -4.3783   -8.5633 H         1 <0>         0.1423
     55 H15        -5.3099   -2.4401   -7.0408 H         1 <0>         0.0964
     56 H16        -5.6442   -3.2577   -8.6598 H         1 <0>         0.1057
     57 H17        -5.3961   -5.5313   -7.5629 H         1 <0>         0.1072
     58 H18        -5.0619   -4.7138   -5.9439 H         1 <0>         0.0975
     59 H19        -1.5797    2.3146    6.3539 H         1 <0>         0.0907
     60 H20        -2.5584    3.5518    5.5295 H         1 <0>         0.0861
     61 H21        -3.4841    1.9463    7.9538 H         1 <0>         0.1063
     62 H22        -4.6314    4.3705    6.4920 H         1 <0>         0.0930
     63 H23        -5.3203    2.7285    6.5089 H         1 <0>         0.1193
     64 H24        -6.4688    4.1926    8.1488 H         1 <0>         0.1366
     65 H25        -5.6024    2.8716    8.9676 H         1 <0>         0.1328
     66 H26        -4.5666    5.5905    8.5909 H         1 <0>         0.4289
     67 H27        -2.8772    4.9079   10.1555 H         1 <0>         0.1390
     68 H28        -3.5803    3.2743   10.0974 H         1 <0>         0.1335
     69 H29        -1.6409    3.4613    8.5646 H         1 <0>         0.1202
     70 H30        -2.4411    4.8067    7.7157 H         1 <0>         0.0968
     71 H31        -5.2306    5.0165    9.9839 H         1 <0>         0.4341
@<TRIPOS>BOND
     1    1    2 1
     2    1   41 1
     3    1   42 1
     4    1   43 1
     5    2    3 1
     6    2    4 1
     7    2   44 1
     8    3   45 1
     9    3   46 1
    10    3   47 1
    11    4    8 2
    12    4    5 1
    13    5    6 2
    14    5   28 1
    15    6    7 1
    16    6   48 1
    17    7   12 1
    18    7    8 1
    19    8    9 1
    20    9   10 2
    21    9   13 1
    22   10   11 1
    23   11   12 2
    24   11   49 1
    25   13   14 1
    26   13   50 1
    27   14   19 ar
    28   14   15 ar
    29   15   16 ar
    30   15   51 1
    31   16   17 ar
    32   16   22 1
    33   17   18 ar
    34   17   21 1
    35   18   19 ar
    36   18   52 1
    37   19   20 1
    38   22   23 2
    39   22   24 am
    40   24   25 1
    41   24   53 1
    42   25   27 1
    43   25   26 1
    44   25   54 1
    45   26   27 1
    46   26   55 1
    47   26   56 1
    48   27   57 1
    49   27   58 1
    50   28   32 1
    51   28   29 2
    52   29   30 1
    53   30   31 2
    54   31   32 1
    55   31   33 1
    56   33   34 1
    57   34   35 1
    58   34   59 1
    59   34   60 1
    60   35   40 1
    61   35   36 1
    62   35   61 1
    63   36   37 1
    64   36   62 1
    65   36   63 1
    66   37   38 1
    67   37   64 1
    68   37   65 1
    69   38   39 1
    70   38   66 1
    71   38   71 1
    72   39   40 1
    73   39   67 1
    74   39   68 1
    75   40   69 1
    76   40   70 1
@<TRIPOS>MOLECULE
CHEMBL271864
   69    74     0     0     0
SMALL
USER_CHARGES

@<TRIPOS>ATOM
      1 C1         -0.6422    1.7717   -0.1531 C.3       1 <0>        -0.1564
      2 C2         -0.2411    0.2952   -0.1601 C.3       1 <0>        -0.0245
      3 C3          0.7229    0.0231    0.9965 C.3       1 <0>        -0.1548
      4 C4         -1.4715   -0.5603   -0.0004 C.2       1 <0>        -0.0148
      5 C5         -2.3712   -0.5421    1.0824 C.2       1 <0>        -0.0962
      6 C6         -3.3505   -1.4828    0.8197 C.2       1 <0>         0.1112
      7 N1         -3.0855   -2.0641   -0.3632 N.pl3     1 <0>        -0.2266
      8 C7         -1.9351   -1.5066   -0.8892 C.2       1 <0>        -0.1046
      9 C8         -1.4723   -1.9713   -2.1441 C.2       1 <0>         0.5373
     10 N2         -2.1516   -2.9160   -2.7731 N.2       1 <0>        -0.6183
     11 C9         -3.2605   -3.4409   -2.2549 C.2       1 <0>         0.3405
     12 N3         -3.7367   -3.0644   -1.1002 N.2       1 <0>        -0.3463
     13 N4         -0.3260   -1.4443   -2.7048 N.pl3     1 <0>        -0.6127
     14 C10         0.0516   -1.8116   -4.0025 C.ar      1 <0>         0.0933
     15 C11        -0.8875   -2.3354   -4.8736 C.ar      1 <0>        -0.0394
     16 C12        -0.5076   -2.7003   -6.1673 C.ar      1 <0>        -0.1634
     17 C13         0.8205   -2.5339   -6.5744 C.ar      1 <0>         0.1841
     18 C14         1.7507   -2.0099   -5.6967 C.ar      1 <0>        -0.1766
     19 C15         1.3709   -1.6441   -4.4172 C.ar      1 <0>         0.1340
     20 F1          2.2837   -1.1273   -3.5658 F         1 <0>        -0.1203
     21 F2          1.1935   -2.8855   -7.8244 F         1 <0>        -0.0995
     22 C16        -1.5037   -3.2599   -7.1014 C.2       1 <0>         0.5666
     23 O1         -1.1708   -3.5768   -8.2270 O.2       1 <0>        -0.5122
     24 N5         -2.7825   -3.4196   -6.7067 N.am      1 <0>        -0.6949
     25 C17        -3.7713   -3.9751   -7.6340 C.3       1 <0>         0.0777
     26 C18        -5.1428   -3.2994   -7.6923 C.3       1 <0>        -0.1916
     27 C19        -4.9931   -4.6707   -7.0304 C.3       1 <0>        -0.1858
     28 C20        -2.2852    0.3224    2.2785 C.2       1 <0>         0.2431
     29 N6         -1.3602    1.2175    2.5241 N.2       1 <0>        -0.2399
     30 N7         -1.6002    1.7810    3.6555 N.2       1 <0>        -0.3294
     31 C21        -2.6881    1.2679    4.1770 C.2       1 <0>         0.4128
     32 O2         -3.1490    0.3393    3.3172 O.3       1 <0>        -0.2408
     33 N8         -3.2600    1.6192    5.3856 N.pl3     1 <0>        -0.5762
     34 C22        -4.4835    0.9553    5.8558 C.3       1 <0>         0.1267
     35 C23        -4.2372    0.4088    7.2656 C.3       1 <0>        -0.1608
     36 C24        -3.7503    1.5432    8.1702 C.3       1 <0>         0.0261
     37 C25        -2.4303    2.0980    7.6298 C.3       1 <0>        -0.1617
     38 C26        -2.6527    2.6593    6.2270 C.3       1 <0>         0.1406
     39 N9         -3.5448    1.0299    9.5312 N.4       1 <0>        -0.6361
     40 H1          0.2477    2.3904   -0.2686 H         1 <0>         0.0665
     41 H2         -1.3289    1.9655   -0.9771 H         1 <0>         0.0498
     42 H3         -1.1310    2.0110    0.7913 H         1 <0>         0.0891
     43 H4          0.2477    0.0559   -1.1045 H         1 <0>         0.0609
     44 H5          0.2340    0.2624    1.9409 H         1 <0>         0.0865
     45 H6          1.0086   -1.0288    0.9915 H         1 <0>         0.0494
     46 H7          1.6127    0.6419    0.8810 H         1 <0>         0.0669
     47 H8         -4.1894   -1.7129    1.4597 H         1 <0>         0.1910
     48 H9         -3.7802   -4.2099   -2.8071 H         1 <0>         0.2271
     49 H10         0.2179   -0.8197   -2.1999 H         1 <0>         0.4299
     50 H11        -1.9113   -2.4620   -4.5540 H         1 <0>         0.1824
     51 H12         2.7759   -1.8820   -6.0114 H         1 <0>         0.1671
     52 H13        -3.0481   -3.1668   -5.8087 H         1 <0>         0.4009
     53 H14        -3.3694   -4.3800   -8.5628 H         1 <0>         0.1423
     54 H15        -5.3093   -2.4416   -7.0408 H         1 <0>         0.0964
     55 H16        -5.6434   -3.2595   -8.6597 H         1 <0>         0.1058
     56 H17        -5.3953   -5.5329   -7.5624 H         1 <0>         0.1071
     57 H18        -5.0612   -4.7150   -5.9434 H         1 <0>         0.0972
     58 H19        -5.3028    1.6738    5.8803 H         1 <0>         0.0906
     59 H20        -4.7348    0.1342    5.1844 H         1 <0>         0.1054
     60 H21        -5.1652   -0.0014    7.6640 H         1 <0>         0.1075
     61 H22        -3.4804   -0.3746    7.2251 H         1 <0>         0.0952
     62 H23        -4.4967    2.3372    8.1906 H         1 <0>         0.1480
     63 H24        -2.0722    2.8900    8.2875 H         1 <0>         0.1101
     64 H25        -1.6905    1.2987    7.5859 H         1 <0>         0.0963
     65 H26        -1.6965    2.9622    5.8004 H         1 <0>         0.1204
     66 H27        -3.3194    3.5199    6.2825 H         1 <0>         0.0893
     67 H28        -2.8543    0.2944    9.5126 H         1 <0>         0.4346
     68 H29        -3.2238    1.7776   10.1277 H         1 <0>         0.4386
     69 H30        -4.4152    0.6651    9.8880 H         1 <0>         0.4378
@<TRIPOS>BOND
     1    1    2 1
     2    1   40 1
     3    1   41 1
     4    1   42 1
     5    2    3 1
     6    2    4 1
     7    2   43 1
     8    3   44 1
     9    3   45 1
    10    3   46 1
    11    4    8 2
    12    4    5 1
    13    5    6 2
    14    5   28 1
    15    6    7 1
    16    6   47 1
    17    7   12 1
    18    7    8 1
    19    8    9 1
    20    9   10 2
    21    9   13 1
    22   10   11 1
    23   11   12 2
    24   11   48 1
    25   13   14 1
    26   13   49 1
    27   14   19 ar
    28   14   15 ar
    29   15   16 ar
    30   15   50 1
    31   16   17 ar
    32   16   22 1
    33   17   18 ar
    34   17   21 1
    35   18   19 ar
    36   18   51 1
    37   19   20 1
    38   22   23 2
    39   22   24 am
    40   24   25 1
    41   24   52 1
    42   25   27 1
    43   25   26 1
    44   25   53 1
    45   26   27 1
    46   26   54 1
    47   26   55 1
    48   27   56 1
    49   27   57 1
    50   28   32 1
    51   28   29 2
    52   29   30 1
    53   30   31 2
    54   31   32 1
    55   31   33 1
    56   33   38 1
    57   33   34 1
    58   34   35 1
    59   34   58 1
    60   34   59 1
    61   35   36 1
    62   35   60 1
    63   35   61 1
    64   36   37 1
    65   36   39 1
    66   36   62 1
    67   37   38 1
    68   37   63 1
    69   37   64 1
    70   38   65 1
    71   38   66 1
    72   39   67 1
    73   39   68 1
    74   39   69 1
@<TRIPOS>MOLECULE
CHEMBL223478
   67    71     0     0     0
SMALL
USER_CHARGES

@<TRIPOS>ATOM
      1 C1         -0.7646    1.0578   -0.2272 C.3       1 <0>        -0.1177
      2 C2         -1.3524   -0.2198    0.3142 C.ar      1 <0>        -0.0637
      3 C3         -2.5565   -0.6894   -0.1782 C.ar      1 <0>        -0.1305
      4 C4         -3.0990   -1.8611    0.3159 C.ar      1 <0>        -0.0950
      5 C5         -2.4394   -2.5669    1.3032 C.ar      1 <0>        -0.1248
      6 C6         -1.2301   -2.0985    1.7994 C.ar      1 <0>         0.1567
      7 C7         -0.6854   -0.9236    1.2975 C.ar      1 <0>        -0.1444
      8 N1         -0.5593   -2.8111    2.7995 N.am      1 <0>        -0.6764
      9 C8         -0.6334   -4.1564    2.8334 C.2       1 <0>         0.7045
     10 O1         -1.2084   -4.7562    1.9457 O.2       1 <0>        -0.5481
     11 N2         -0.0701   -4.8369    3.8513 N.am      1 <0>        -0.6851
     12 C9         -0.0585   -6.2354    3.8360 C.ar      1 <0>         0.1904
     13 C10         0.0554   -6.9148    2.6287 C.ar      1 <0>        -0.1099
     14 C11         0.0676   -8.2929    2.6103 C.ar      1 <0>        -0.0663
     15 C12        -0.0346   -9.0062    3.8056 C.ar      1 <0>        -0.0921
     16 C13        -0.1488   -8.3212    5.0162 C.ar      1 <0>        -0.1107
     17 C14        -0.1551   -6.9429    5.0285 C.ar      1 <0>        -0.1420
     18 C15        -0.0223  -10.4863    3.7893 C.ar      1 <0>         0.0499
     19 C16        -0.8511  -11.1885    2.9350 C.ar      1 <0>        -0.0998
     20 C17        -0.8514  -12.5800    2.9077 C.ar      1 <0>        -0.1031
     21 C18        -0.0465  -13.3281    3.7103 C.ar      1 <0>         0.1036
     22 C19         0.8384  -12.7028    4.6208 C.ar      1 <0>         0.2273
     23 C20         0.8716  -11.2345    4.6728 C.ar      1 <0>        -0.2027
     24 C21         1.8165  -10.8948    5.6292 C.2       1 <0>         0.5238
     25 N3          2.3283  -12.0371    6.1217 N.pl3     1 <0>        -0.4326
     26 N4          1.7178  -13.1359    5.5062 N.pl3     1 <0>        -0.4103
     27 H1          3.0122  -12.0914    6.8074 H         1 <0>         0.4700
     28 N5          2.1707   -9.6078    6.0095 N.pl3     1 <0>        -0.7894
     29 O2         -0.0930  -14.6841    3.6375 O.3       1 <0>        -0.2994
     30 C22        -1.0080  -15.2524    2.6983 C.3       1 <0>         0.0653
     31 C23        -0.9193  -16.7786    2.7594 C.3       1 <0>         0.0502
     32 N6         -1.3652  -17.2425    4.0800 N.3       1 <0>        -0.5340
     33 C24        -0.8778  -18.6024    4.3529 C.3       1 <0>         0.0168
     34 C25        -1.3137  -19.0223    5.7592 C.3       1 <0>         0.0633
     35 O3         -2.7371  -18.9269    5.8600 O.3       1 <0>        -0.3815
     36 C26        -3.2460  -17.6157    5.6009 C.3       1 <0>         0.0638
     37 C27        -2.8297  -17.1816    4.1930 C.3       1 <0>         0.0116
     38 H2         -0.1240    0.8305   -1.0793 H         1 <0>         0.0737
     39 H3         -1.5687    1.7220   -0.5441 H         1 <0>         0.0709
     40 H4         -0.1760    1.5450    0.5502 H         1 <0>         0.0676
     41 H5         -3.0742   -0.1393   -0.9501 H         1 <0>         0.1261
     42 H6         -4.0398   -2.2248   -0.0702 H         1 <0>         0.1280
     43 H7         -2.8639   -3.4820    1.6890 H         1 <0>         0.1340
     44 H8          0.2569   -0.5585    1.6787 H         1 <0>         0.1255
     45 H9         -0.0411   -2.3369    3.4684 H         1 <0>         0.4100
     46 H10         0.3273   -4.3567    4.5946 H         1 <0>         0.4128
     47 H11         0.1340   -6.3622    1.7041 H         1 <0>         0.1481
     48 H12         0.1557   -8.8202    1.6719 H         1 <0>         0.1381
     49 H13        -0.2284   -8.8704    5.9426 H         1 <0>         0.1321
     50 H14        -0.2393   -6.4122    5.9653 H         1 <0>         0.1379
     51 H15        -1.5123  -10.6464    2.2753 H         1 <0>         0.1532
     52 H16        -1.5164  -13.0856    2.2233 H         1 <0>         0.1559
     53 H17         1.7422   -8.8437    5.5930 H         1 <0>         0.4422
     54 H18         2.8468   -9.4725    6.6918 H         1 <0>         0.4246
     55 H19        -2.0223  -14.9372    2.9430 H         1 <0>         0.0733
     56 H20        -0.7546  -14.9136    1.6938 H         1 <0>         0.0789
     57 H21        -1.5569  -17.2107    1.9882 H         1 <0>         0.0709
     58 H22         0.1123  -17.0895    2.5943 H         1 <0>         0.0909
     59 H23        -1.2964  -19.2928    3.6207 H         1 <0>         0.0486
     60 H24         0.2102  -18.6187    4.2890 H         1 <0>         0.0884
     61 H25        -1.0038  -20.0507    5.9444 H         1 <0>         0.1017
     62 H26        -0.8517  -18.3642    6.4951 H         1 <0>         0.0582
     63 H27        -4.3337  -17.6269    5.6716 H         1 <0>         0.1013
     64 H28        -2.8403  -16.9167    6.3322 H         1 <0>         0.0580
     65 H29        -3.1665  -16.1608    4.0124 H         1 <0>         0.0851
     66 H30        -3.2795  -17.8493    3.4583 H         1 <0>         0.0495
     67 H31         1.9174  -14.0669    5.6915 H         1 <0>         0.4765
@<TRIPOS>BOND
     1    1    2 1
     2    1   38 1
     3    1   39 1
     4    1   40 1
     5    2    7 ar
     6    2    3 ar
     7    3    4 ar
     8    3   41 1
     9    4    5 ar
    10    4   42 1
    11    5    6 ar
    12    5   43 1
    13    6    7 ar
    14    6    8 1
    15    7   44 1
    16    8    9 am
    17    8   45 1
    18    9   10 2
    19    9   11 am
    20   11   12 1
    21   11   46 1
    22   12   17 ar
    23   12   13 ar
    24   13   14 ar
    25   13   47 1
    26   14   15 ar
    27   14   48 1
    28   15   16 ar
    29   15   18 1
    30   16   17 ar
    31   16   49 1
    32   17   50 1
    33   18   23 ar
    34   18   19 ar
    35   19   20 ar
    36   19   51 1
    37   20   21 ar
    38   20   52 1
    39   21   22 ar
    40   21   29 1
    41   22   23 ar
    42   22   26 2
    43   23   24 2
    44   24   28 1
    45   24   25 1
    46   25   27 1
    47   25   26 1
    48   26   67 1
    49   28   53 1
    50   28   54 1
    51   29   30 1
    52   30   31 1
    53   30   55 1
    54   30   56 1
    55   31   32 1
    56   31   57 1
    57   31   58 1
    58   32   37 1
    59   32   33 1
    60   33   34 1
    61   33   59 1
    62   33   60 1
    63   34   35 1
    64   34   61 1
    65   34   62 1
    66   35   36 1
    67   36   37 1
    68   36   63 1
    69   36   64 1
    70   37   65 1
    71   37   66 1
@<TRIPOS>MOLECULE
CHEMBL223478__1
   66    70     0     0     0
SMALL
USER_CHARGES

@<TRIPOS>ATOM
      1 C1         -0.7646    1.0578   -0.2272 C.3       1 <0>        -0.1155
      2 C2         -1.3524   -0.2198    0.3142 C.ar      1 <0>        -0.0664
      3 C3         -2.5565   -0.6894   -0.1782 C.ar      1 <0>        -0.1349
      4 C4         -3.0990   -1.8611    0.3159 C.ar      1 <0>        -0.0951
      5 C5         -2.4394   -2.5669    1.3032 C.ar      1 <0>        -0.1249
      6 C6         -1.2301   -2.0985    1.7994 C.ar      1 <0>         0.1642
      7 C7         -0.6854   -0.9236    1.2975 C.ar      1 <0>        -0.1473
      8 N1         -0.5593   -2.8111    2.7995 N.am      1 <0>        -0.6814
      9 C8         -0.6334   -4.1564    2.8334 C.2       1 <0>         0.7034
     10 O1         -1.2084   -4.7562    1.9457 O.2       1 <0>        -0.5498
     11 N2         -0.0701   -4.8369    3.8513 N.am      1 <0>        -0.6818
     12 C9         -0.0585   -6.2354    3.8360 C.ar      1 <0>         0.1616
     13 C10         0.0554   -6.9148    2.6287 C.ar      1 <0>        -0.1113
     14 C11         0.0676   -8.2929    2.6103 C.ar      1 <0>        -0.0835
     15 C12        -0.0346   -9.0062    3.8056 C.ar      1 <0>        -0.0481
     16 C13        -0.1488   -8.3212    5.0162 C.ar      1 <0>        -0.1083
     17 C14        -0.1551   -6.9429    5.0285 C.ar      1 <0>        -0.1418
     18 C15        -0.0223  -10.4863    3.7893 C.ar      1 <0>         0.0006
     19 C16        -0.8511  -11.1885    2.9350 C.ar      1 <0>        -0.1133
     20 C17        -0.8514  -12.5800    2.9077 C.ar      1 <0>        -0.1875
     21 C18        -0.0465  -13.3281    3.7103 C.ar      1 <0>         0.1512
     22 C19         0.8384  -12.7028    4.6208 C.ar      1 <0>         0.1327
     23 C20         0.8716  -11.2345    4.6728 C.ar      1 <0>        -0.2310
     24 C21         1.8165  -10.8948    5.6292 C.2       1 <0>         0.3908
     25 N3          2.3283  -12.0371    6.1217 N.pl3     1 <0>        -0.4653
     26 N4          1.7178  -13.1359    5.5062 N.2       1 <0>        -0.2864
     27 H1          3.0122  -12.0914    6.8074 H         1 <0>         0.4400
     28 N5          2.1707   -9.6078    6.0095 N.pl3     1 <0>        -0.8471
     29 O2         -0.0930  -14.6841    3.6375 O.3       1 <0>        -0.2890
     30 C22        -1.0080  -15.2524    2.6983 C.3       1 <0>         0.0649
     31 C23        -0.9193  -16.7786    2.7594 C.3       1 <0>         0.0554
     32 N6         -1.3652  -17.2425    4.0800 N.3       1 <0>        -0.5292
     33 C24        -0.8778  -18.6024    4.3529 C.3       1 <0>         0.0194
     34 C25        -1.3137  -19.0223    5.7592 C.3       1 <0>         0.0630
     35 O3         -2.7371  -18.9269    5.8600 O.3       1 <0>        -0.3860
     36 C26        -3.2460  -17.6157    5.6009 C.3       1 <0>         0.0636
     37 C27        -2.8297  -17.1816    4.1930 C.3       1 <0>         0.0146
     38 H2         -0.1240    0.8305   -1.0793 H         1 <0>         0.0722
     39 H3         -1.5687    1.7220   -0.5441 H         1 <0>         0.0689
     40 H4         -0.1760    1.5450    0.5502 H         1 <0>         0.0664
     41 H5         -3.0742   -0.1393   -0.9501 H         1 <0>         0.1237
     42 H6         -4.0398   -2.2248   -0.0702 H         1 <0>         0.1267
     43 H7         -2.8639   -3.4820    1.6890 H         1 <0>         0.1355
     44 H8          0.2569   -0.5585    1.6787 H         1 <0>         0.1245
     45 H9         -0.0411   -2.3369    3.4684 H         1 <0>         0.4084
     46 H10         0.3273   -4.3567    4.5946 H         1 <0>         0.4086
     47 H11         0.1340   -6.3622    1.7041 H         1 <0>         0.1390
     48 H12         0.1557   -8.8202    1.6719 H         1 <0>         0.1315
     49 H13        -0.2284   -8.8704    5.9426 H         1 <0>         0.1314
     50 H14        -0.2393   -6.4122    5.9653 H         1 <0>         0.1290
     51 H15        -1.5123  -10.6464    2.2753 H         1 <0>         0.1244
     52 H16        -1.5164  -13.0856    2.2233 H         1 <0>         0.1281
     53 H17         1.7422   -8.8437    5.5930 H         1 <0>         0.4198
     54 H18         2.8468   -9.4725    6.6918 H         1 <0>         0.4014
     55 H19        -2.0223  -14.9372    2.9430 H         1 <0>         0.0634
     56 H20        -0.7546  -14.9136    1.6938 H         1 <0>         0.0685
     57 H21        -1.5569  -17.2107    1.9882 H         1 <0>         0.0608
     58 H22         0.1123  -17.0895    2.5943 H         1 <0>         0.0880
     59 H23        -1.2964  -19.2928    3.6207 H         1 <0>         0.0426
     60 H24         0.2102  -18.6187    4.2890 H         1 <0>         0.0884
     61 H25        -1.0038  -20.0507    5.9444 H         1 <0>         0.0984
     62 H26        -0.8517  -18.3642    6.4951 H         1 <0>         0.0615
     63 H27        -4.3337  -17.6269    5.6716 H         1 <0>         0.0981
     64 H28        -2.8403  -16.9167    6.3322 H         1 <0>         0.0609
     65 H29        -3.1665  -16.1608    4.0124 H         1 <0>         0.0858
     66 H30        -3.2795  -17.8493    3.4583 H         1 <0>         0.0437
@<TRIPOS>BOND
     1    1    2 1
     2    1   38 1
     3    1   39 1
     4    1   40 1
     5    2    7 ar
     6    2    3 ar
     7    3    4 ar
     8    3   41 1
     9    4    5 ar
    10    4   42 1
    11    5    6 ar
    12    5   43 1
    13    6    7 ar
    14    6    8 1
    15    7   44 1
    16    8    9 am
    17    8   45 1
    18    9   10 2
    19    9   11 am
    20   11   12 1
    21   11   46 1
    22   12   17 ar
    23   12   13 ar
    24   13   14 ar
    25   13   47 1
    26   14   15 ar
    27   14   48 1
    28   15   16 ar
    29   15   18 1
    30   16   17 ar
    31   16   49 1
    32   17   50 1
    33   18   23 ar
    34   18   19 ar
    35   19   20 ar
    36   19   51 1
    37   20   21 ar
    38   20   52 1
    39   21   22 ar
    40   21   29 1
    41   22   23 ar
    42   22   26 2
    43   23   24 2
    44   24   28 1
    45   24   25 1
    46   25   27 1
    47   25   26 1
    48   28   53 1
    49   28   54 1
    50   29   30 1
    51   30   31 1
    52   30   55 1
    53   30   56 1
    54   31   32 1
    55   31   57 1
    56   31   58 1
    57   32   37 1
    58   32   33 1
    59   33   34 1
    60   33   59 1
    61   33   60 1
    62   34   35 1
    63   34   61 1
    64   34   62 1
    65   35   36 1
    66   36   37 1
    67   36   63 1
    68   36   64 1
    69   37   65 1
    70   37   66 1
@<TRIPOS>MOLECULE
CHEMBL223478__2
   66    70     0     0     0
SMALL
USER_CHARGES

@<TRIPOS>ATOM
      1 C1         -4.0333    0.6184    7.1088 C.3       1 <0>        -0.1155
      2 C2         -3.3690   -0.6856    7.4682 C.ar      1 <0>        -0.0663
      3 C3         -3.6747   -1.3101    8.6638 C.ar      1 <0>        -0.1350
      4 C4         -3.0678   -2.5068    8.9970 C.ar      1 <0>        -0.0952
      5 C5         -2.1535   -3.0825    8.1362 C.ar      1 <0>        -0.1249
      6 C6         -1.8444   -2.4580    6.9352 C.ar      1 <0>         0.1644
      7 C7         -2.4598   -1.2586    6.6010 C.ar      1 <0>        -0.1472
      8 N1         -0.9183   -3.0383    6.0613 N.am      1 <0>        -0.6814
      9 C8         -0.8245   -4.3798    5.9724 C.2       1 <0>         0.7034
     10 O1         -1.6061   -5.0855    6.5803 O.2       1 <0>        -0.5500
     11 N2          0.1356   -4.9392    5.2097 N.am      1 <0>        -0.6818
     12 C9          0.1678   -6.3261    5.0316 C.ar      1 <0>         0.1661
     13 C10        -1.0194   -7.0474    4.9866 C.ar      1 <0>        -0.1151
     14 C11        -0.9907   -8.4144    4.8116 C.ar      1 <0>        -0.0803
     15 C12         0.2316   -9.0738    4.6793 C.ar      1 <0>        -0.0606
     16 C13         1.4217   -8.3472    4.7245 C.ar      1 <0>        -0.0911
     17 C14         1.3867   -6.9797    4.8944 C.ar      1 <0>        -0.1440
     18 C15         0.2658  -10.5426    4.4917 C.ar      1 <0>        -0.0032
     19 C16        -0.4114  -11.1275    3.4312 C.ar      1 <0>        -0.1118
     20 C17        -0.3817  -12.5017    3.2533 C.ar      1 <0>        -0.1651
     21 C18         0.3201  -13.3119    4.1254 C.ar      1 <0>         0.1096
     22 C19         1.0112  -12.7483    5.2016 C.ar      1 <0>         0.1368
     23 C20         0.9911  -11.3556    5.3858 C.ar      1 <0>        -0.1511
     24 C21         1.7999  -11.0847    6.5724 C.2       1 <0>         0.3602
     25 N3          2.2458  -12.2296    7.0190 N.2       1 <0>        -0.3121
     26 N4          1.7778  -13.2717    6.2120 N.pl3     1 <0>        -0.4955
     27 H1          1.9729  -14.2132    6.3399 H         1 <0>         0.4446
     28 N5          2.0519   -9.8274    7.1294 N.pl3     1 <0>        -0.8358
     29 O2          0.3380  -14.6579    3.9367 O.3       1 <0>        -0.3011
     30 C22        -0.3904  -15.1658    2.8171 C.3       1 <0>         0.0683
     31 C23        -0.2545  -16.6890    2.7687 C.3       1 <0>         0.0540
     32 N6         -0.8997  -17.2760    3.9506 N.3       1 <0>        -0.5308
     33 C24        -0.4123  -18.6416    4.1933 C.3       1 <0>         0.0186
     34 C25        -1.0640  -19.1919    5.4647 C.3       1 <0>         0.0628
     35 O3         -2.4865  -19.1416    5.3253 O.3       1 <0>        -0.3851
     36 C26        -2.9956  -17.8262    5.0885 C.3       1 <0>         0.0634
     37 C27        -2.3634  -17.2621    3.8133 C.3       1 <0>         0.0142
     38 H2         -4.9555    0.4181    6.5633 H         1 <0>         0.0722
     39 H3         -4.2626    1.1724    8.0190 H         1 <0>         0.0688
     40 H4         -3.3623    1.2079    6.4839 H         1 <0>         0.0665
     41 H5         -4.3889   -0.8619    9.3386 H         1 <0>         0.1236
     42 H6         -3.3084   -2.9918    9.9315 H         1 <0>         0.1266
     43 H7         -1.6795   -4.0171    8.3973 H         1 <0>         0.1352
     44 H8         -2.2245   -0.7725    5.6657 H         1 <0>         0.1246
     45 H9         -0.3438   -2.4750    5.5195 H         1 <0>         0.4086
     46 H10         0.8042   -4.3799    4.7842 H         1 <0>         0.4093
     47 H11        -1.9653   -6.5364    5.0891 H         1 <0>         0.1387
     48 H12        -1.9135   -8.9744    4.7774 H         1 <0>         0.1301
     49 H13         2.3694   -8.8551    4.6226 H         1 <0>         0.1312
     50 H14         2.3075   -6.4161    4.9254 H         1 <0>         0.1297
     51 H15        -0.9650  -10.5085    2.7408 H         1 <0>         0.1308
     52 H16        -0.9134  -12.9443    2.4239 H         1 <0>         0.1344
     53 H17         1.5794   -9.0472    6.7994 H         1 <0>         0.4121
     54 H18         2.6993   -9.7353    7.8458 H         1 <0>         0.4053
     55 H19        -1.4423  -14.8979    2.9162 H         1 <0>         0.0641
     56 H20         0.0090  -14.7360    1.8985 H         1 <0>         0.0689
     57 H21        -0.7347  -17.0682    1.8666 H         1 <0>         0.0623
     58 H22         0.8014  -16.9594    2.7593 H         1 <0>         0.0880
     59 H23        -0.6725  -19.2768    3.3467 H         1 <0>         0.0438
     60 H24         0.6705  -18.6249    4.3174 H         1 <0>         0.0881
     61 H25        -0.7496  -20.2244    5.6173 H         1 <0>         0.0992
     62 H26        -0.7605  -18.5882    6.3199 H         1 <0>         0.0610
     63 H27        -4.0781  -17.8710    4.9690 H         1 <0>         0.0990
     64 H28        -2.7482  -17.1828    5.9328 H         1 <0>         0.0608
     65 H29        -2.7048  -16.2384    3.6600 H         1 <0>         0.0858
     66 H30        -2.6548  -17.8752    2.9606 H         1 <0>         0.0448
@<TRIPOS>BOND
     1    1    2 1
     2    1   38 1
     3    1   39 1
     4    1   40 1
     5    2    7 ar
     6    2    3 ar
     7    3    4 ar
     8    3   41 1
     9    4    5 ar
    10    4   42 1
    11    5    6 ar
    12    5   43 1
    13    6    7 ar
    14    6    8 1
    15    7   44 1
    16    8    9 am
    17    8   45 1
    18    9   10 2
    19    9   11 am
    20   11   12 1
    21   11   46 1
    22   12   17 ar
    23   12   13 ar
    24   13   14 ar
    25   13   47 1
    26   14   15 ar
    27   14   48 1
    28   15   16 ar
    29   15   18 1
    30   16   17 ar
    31   16   49 1
    32   17   50 1
    33   18   23 ar
    34   18   19 ar
    35   19   20 ar
    36   19   51 1
    37   20   21 ar
    38   20   52 1
    39   21   22 ar
    40   21   29 1
    41   22   26 1
    42   22   23 ar
    43   23   24 1
    44   24   25 2
    45   24   28 1
    46   25   26 1
    47   26   27 1
    48   28   53 1
    49   28   54 1
    50   29   30 1
    51   30   31 1
    52   30   55 1
    53   30   56 1
    54   31   32 1
    55   31   57 1
    56   31   58 1
    57   32   37 1
    58   32   33 1
    59   33   34 1
    60   33   59 1
    61   33   60 1
    62   34   35 1
    63   34   61 1
    64   34   62 1
    65   35   36 1
    66   36   37 1
    67   36   63 1
    68   36   64 1
    69   37   65 1
    70   37   66 1
@<TRIPOS>MOLECULE
CHEMBL225639
   57    61     0     0     0
SMALL
USER_CHARGES

@<TRIPOS>ATOM
      1 C1         -0.0178    1.4648    0.0101 C.3       1 <0>        -0.0459
      2 N1          0.0021   -0.0041    0.0020 N.4       1 <0>        -0.3885
      3 C2         -1.3761   -0.5122    0.0107 C.3       1 <0>        -0.0023
      4 C3         -1.3560   -2.0421   -0.0167 C.3       1 <0>         0.0247
      5 N2         -0.6244   -2.5407    1.1564 N.3       1 <0>        -0.5343
      6 C4          0.7499   -2.0201    1.1745 C.3       1 <0>         0.0187
      7 C5          0.7125   -0.4904    1.1921 C.3       1 <0>        -0.0024
      8 C6         -0.6316   -4.0091    1.1963 C.3       1 <0>         0.0983
      9 C7         -0.0938   -4.4782    2.5236 C.ar      1 <0>        -0.0832
     10 C8          1.2623   -4.7055    2.6779 C.ar      1 <0>        -0.1167
     11 C9          1.7629   -5.1349    3.8890 C.ar      1 <0>        -0.0927
     12 C10         0.8977   -5.3413    4.9667 C.ar      1 <0>        -0.0232
     13 C11        -0.4668   -5.1086    4.8001 C.ar      1 <0>        -0.0673
     14 C12        -0.9565   -4.6753    3.5879 C.ar      1 <0>        -0.0725
     15 C13        -1.1304   -5.4146    6.1204 C.3       1 <0>        -0.0110
     16 C14        -0.0193   -5.8412    7.0489 C.2       1 <0>        -0.2178
     17 C15         1.1508   -5.7901    6.3537 C.2       1 <0>         0.0925
     18 N3          2.1468   -6.1787    7.2054 N.pl3     1 <0>        -0.4534
     19 H1          3.0904   -6.2401    6.9891 H         1 <0>         0.4422
     20 N4          1.5658   -6.4719    8.4450 N.2       1 <0>        -0.2513
     21 C16         0.2680   -6.2702    8.3544 C.2       1 <0>         0.1616
     22 C17        -0.7212   -6.4632    9.4449 C.2       1 <0>        -0.0512
     23 C18        -0.5590   -7.4782   10.3747 C.2       1 <0>        -0.1108
     24 C19        -1.4951   -7.6194   11.3635 C.2       1 <0>        -0.0435
     25 S1         -2.6378   -6.3001   10.9903 S.3       1 <0>         0.1092
     26 C20        -1.8082   -5.6388    9.5549 C.2       1 <0>        -0.1490
     27 C21        -1.5448   -8.5793   12.4250 C.1       1 <0>        -0.1156
     28 C22        -1.5855   -9.3663   13.2952 C.1       1 <0>        -0.1100
     29 C23        -1.6366  -10.3530   14.3864 C.3       1 <0>        -0.0106
     30 C24        -2.8818  -10.1052   15.2402 C.3       1 <0>         0.0801
     31 O1         -2.9314  -11.0631   16.2994 O.3       1 <0>        -0.5727
     32 H2          1.0047    1.8421    0.0024 H         1 <0>         0.1240
     33 H3         -0.5450    1.8259   -0.8730 H         1 <0>         0.1245
     34 H4         -0.5280    1.8163    0.9069 H         1 <0>         0.1232
     35 H5         -1.8832   -0.1716    0.9134 H         1 <0>         0.1379
     36 H6         -1.9060   -0.1400   -0.8661 H         1 <0>         0.1363
     37 H7         -2.3783   -2.4196    0.0047 H         1 <0>         0.1252
     38 H8         -0.8610   -2.3831   -0.9260 H         1 <0>         0.0616
     39 H9          1.2641   -2.3816    2.0650 H         1 <0>         0.1266
     40 H10         1.2796   -2.3607    0.2848 H         1 <0>         0.0612
     41 H11         1.7310   -0.1020    1.1912 H         1 <0>         0.1352
     42 H12         0.1947   -0.1499    2.0888 H         1 <0>         0.1376
     43 H13        -1.6519   -4.3710    1.0694 H         1 <0>         0.1000
     44 H14        -0.0057   -4.3975    0.3929 H         1 <0>         0.0584
     45 H15         1.9320   -4.5463    1.8456 H         1 <0>         0.1245
     46 H16         2.8220   -5.3116    4.0043 H         1 <0>         0.1261
     47 H17        -2.0141   -4.4930    3.4667 H         1 <0>         0.1328
     48 H18        -1.6240   -4.5237    6.5088 H         1 <0>         0.1015
     49 H19        -1.8517   -6.2230    6.0005 H         1 <0>         0.1046
     50 H20         0.2890   -8.1448   10.3200 H         1 <0>         0.1431
     51 H21        -2.0917   -4.8030    8.9324 H         1 <0>         0.1935
     52 H22        -1.6784  -11.3578   13.9659 H         1 <0>         0.1035
     53 H23        -0.7456  -10.2554   15.0065 H         1 <0>         0.1027
     54 H24        -2.8400   -9.1004   15.6606 H         1 <0>         0.0519
     55 H25        -3.7729  -10.2028   14.6201 H         1 <0>         0.0524
     56 H26        -3.6968  -10.9656   16.8824 H         1 <0>         0.3878
     57 H27         0.4748   -0.3293   -0.8280 H         1 <0>         0.4223
@<TRIPOS>BOND
     1    1    2 1
     2    1   32 1
     3    1   33 1
     4    1   34 1
     5    2    7 1
     6    2    3 1
     7    2   57 1
     8    3    4 1
     9    3   35 1
    10    3   36 1
    11    4    5 1
    12    4   37 1
    13    4   38 1
    14    5    6 1
    15    5    8 1
    16    6    7 1
    17    6   39 1
    18    6   40 1
    19    7   41 1
    20    7   42 1
    21    8    9 1
    22    8   43 1
    23    8   44 1
    24    9   14 ar
    25    9   10 ar
    26   10   11 ar
    27   10   45 1
    28   11   12 ar
    29   11   46 1
    30   12   17 1
    31   12   13 ar
    32   13   14 ar
    33   13   15 1
    34   14   47 1
    35   15   16 1
    36   15   48 1
    37   15   49 1
    38   16   21 1
    39   16   17 2
    40   17   18 1
    41   18   19 1
    42   18   20 1
    43   20   21 2
    44   21   22 1
    45   22   26 2
    46   22   23 1
    47   23   24 2
    48   23   50 1
    49   24   25 1
    50   24   27 1
    51   25   26 1
    52   26   51 1
    53   27   28 3
    54   28   29 1
    55   29   30 1
    56   29   52 1
    57   29   53 1
    58   30   31 1
    59   30   54 1
    60   30   55 1
    61   31   56 1
@<TRIPOS>MOLECULE
CHEMBL225639__1
   57    61     0     0     0
SMALL
USER_CHARGES

@<TRIPOS>ATOM
      1 C1         -0.0178    1.4648    0.0101 C.3       1 <0>        -0.0458
      2 N1          0.0021   -0.0041    0.0020 N.4       1 <0>        -0.3884
      3 C2         -1.3761   -0.5122    0.0107 C.3       1 <0>        -0.0023
      4 C3         -1.3560   -2.0421   -0.0167 C.3       1 <0>         0.0248
      5 N2         -0.6244   -2.5407    1.1564 N.3       1 <0>        -0.5344
      6 C4          0.7499   -2.0201    1.1745 C.3       1 <0>         0.0185
      7 C5          0.7125   -0.4904    1.1921 C.3       1 <0>        -0.0024
      8 C6         -0.6316   -4.0091    1.1963 C.3       1 <0>         0.0990
      9 C7         -0.0938   -4.4782    2.5236 C.ar      1 <0>        -0.0839
     10 C8          1.2620   -4.7055    2.6780 C.ar      1 <0>        -0.1192
     11 C9          1.7607   -5.1345    3.8904 C.ar      1 <0>        -0.0834
     12 C10         0.8957   -5.3405    4.9666 C.ar      1 <0>        -0.0042
     13 C11        -0.4666   -5.1093    4.8021 C.ar      1 <0>        -0.0687
     14 C12        -0.9558   -4.6753    3.5874 C.ar      1 <0>        -0.0764
     15 C13        -1.1468   -5.4115    6.1149 C.3       1 <0>        -0.0002
     16 C14        -0.0552   -5.8414    7.0633 C.2       1 <0>        -0.2344
     17 C15         1.1578   -5.7919    6.3569 C.2       1 <0>         0.0857
     18 N3          2.1219   -6.1666    7.1764 N.2       1 <0>        -0.2500
     19 H1          2.0356   -6.7641    9.2097 H         1 <0>         0.4476
     20 N4          1.5557   -6.4642    8.4219 N.pl3     1 <0>        -0.4571
     21 C16         0.2108   -6.2575    8.3325 C.2       1 <0>         0.1745
     22 C17        -0.7787   -6.4499    9.4165 C.2       1 <0>        -0.0760
     23 C18        -0.5289   -5.9750   10.6962 C.2       1 <0>        -0.1274
     24 C19        -1.4722   -6.1750   11.6669 C.2       1 <0>        -0.0365
     25 S1         -2.7485   -7.0505   10.7781 S.3       1 <0>         0.1212
     26 C20        -1.9634   -7.0960    9.1759 C.2       1 <0>        -0.1397
     27 C21        -1.4426   -5.7830   13.0439 C.1       1 <0>        -0.1220
     28 C22        -1.4183   -5.4616   14.1728 C.1       1 <0>        -0.1019
     29 C23        -1.3878   -5.0587   15.5882 C.3       1 <0>        -0.0126
     30 C24        -2.6791   -5.5087   16.2745 C.3       1 <0>         0.0805
     31 O1         -2.6495   -5.1175   17.6486 O.3       1 <0>        -0.5723
     32 H2          1.0047    1.8421    0.0024 H         1 <0>         0.1239
     33 H3         -0.5450    1.8259   -0.8730 H         1 <0>         0.1241
     34 H4         -0.5280    1.8163    0.9069 H         1 <0>         0.1230
     35 H5         -1.8832   -0.1716    0.9134 H         1 <0>         0.1377
     36 H6         -1.9060   -0.1400   -0.8661 H         1 <0>         0.1358
     37 H7         -2.3783   -2.4196    0.0047 H         1 <0>         0.1247
     38 H8         -0.8610   -2.3831   -0.9260 H         1 <0>         0.0613
     39 H9          1.2641   -2.3816    2.0650 H         1 <0>         0.1277
     40 H10         1.2796   -2.3607    0.2848 H         1 <0>         0.0613
     41 H11         1.7310   -0.1020    1.1912 H         1 <0>         0.1353
     42 H12         0.1947   -0.1499    2.0888 H         1 <0>         0.1375
     43 H13        -1.6519   -4.3710    1.0694 H         1 <0>         0.0991
     44 H14        -0.0057   -4.3975    0.3929 H         1 <0>         0.0582
     45 H15         1.9324   -4.5469    1.8463 H         1 <0>         0.1242
     46 H16         2.8197   -5.3112    4.0069 H         1 <0>         0.1298
     47 H17        -2.0134   -4.4932    3.4656 H         1 <0>         0.1308
     48 H18        -1.6430   -4.5184    6.4945 H         1 <0>         0.0965
     49 H19        -1.8708   -6.2160    5.9856 H         1 <0>         0.0964
     50 H20         0.3920   -5.4579   10.9215 H         1 <0>         0.1394
     51 H21        -2.3277   -7.5242    8.2538 H         1 <0>         0.1970
     52 H22        -0.5337   -5.5240   16.0802 H         1 <0>         0.1039
     53 H23        -1.2994   -3.9743   15.6555 H         1 <0>         0.1036
     54 H24        -3.5332   -5.0433   15.7826 H         1 <0>         0.0524
     55 H25        -2.7675   -6.5930   16.2073 H         1 <0>         0.0528
     56 H26        -3.4386   -5.3709   18.1468 H         1 <0>         0.3887
     57 H27         0.4748   -0.3293   -0.8280 H         1 <0>         0.4223
@<TRIPOS>BOND
     1    1    2 1
     2    1   32 1
     3    1   33 1
     4    1   34 1
     5    2    7 1
     6    2    3 1
     7    2   57 1
     8    3    4 1
     9    3   35 1
    10    3   36 1
    11    4    5 1
    12    4   37 1
    13    4   38 1
    14    5    6 1
    15    5    8 1
    16    6    7 1
    17    6   39 1
    18    6   40 1
    19    7   41 1
    20    7   42 1
    21    8    9 1
    22    8   43 1
    23    8   44 1
    24    9   14 ar
    25    9   10 ar
    26   10   11 ar
    27   10   45 1
    28   11   12 ar
    29   11   46 1
    30   12   13 ar
    31   12   17 1
    32   13   14 ar
    33   13   15 1
    34   14   47 1
    35   15   48 1
    36   15   49 1
    37   15   16 1
    38   16   17 1
    39   16   21 2
    40   17   18 2
    41   18   20 1
    42   19   20 1
    43   20   21 1
    44   21   22 1
    45   22   26 2
    46   22   23 1
    47   23   24 2
    48   23   50 1
    49   24   25 1
    50   24   27 1
    51   25   26 1
    52   26   51 1
    53   27   28 3
    54   28   29 1
    55   29   30 1
    56   29   52 1
    57   29   53 1
    58   30   31 1
    59   30   54 1
    60   30   55 1
    61   31   56 1
@<TRIPOS>MOLECULE
CHEMBL452569
   63    67     0     0     0
SMALL
USER_CHARGES

@<TRIPOS>ATOM
      1 C1         -1.0543    0.7954    0.0811 C.3       1 <0>         0.1051
      2 N1         -0.6559   -0.6121    0.0001 N.pl3     1 <0>        -0.3900
      3 C2         -0.3945   -1.2981   -1.1577 C.ar      1 <0>         0.1537
      4 C3         -0.4102   -0.9507   -2.5059 C.ar      1 <0>        -0.1203
      5 C4         -0.0877   -1.8961   -3.4597 C.ar      1 <0>         0.0923
      6 C5          0.2528   -3.1951   -3.0828 C.ar      1 <0>        -0.1751
      7 C6          0.2733   -3.5525   -1.7670 C.ar      1 <0>        -0.0101
      8 C7         -0.0494   -2.6110   -0.7844 C.ar      1 <0>        -0.1675
      9 C8         -0.1245   -2.6552    0.6768 C.2       1 <0>         0.3362
     10 N2         -0.4761   -1.4675    1.0918 N.2       1 <0>        -0.2151
     11 N3          0.1381   -3.7680    1.4840 N.am      1 <0>        -0.6421
     12 C9          0.0302   -3.6691    2.8238 C.2       1 <0>         0.6977
     13 O1         -0.2954   -2.6131    3.3313 O.2       1 <0>        -0.5220
     14 N4          0.2831   -4.7406    3.6012 N.am      1 <0>        -0.6733
     15 C10         0.0806   -4.6652    4.9858 C.ar      1 <0>         0.1159
     16 C11         0.9128   -5.3656    5.8486 C.ar      1 <0>        -0.0995
     17 C12         0.7126   -5.2910    7.2129 C.ar      1 <0>        -0.1317
     18 C13        -0.3197   -4.5164    7.7214 C.ar      1 <0>         0.1197
     19 C14        -1.1515   -3.8163    6.8599 C.ar      1 <0>        -0.1885
     20 C15        -0.9489   -3.8856    5.4957 C.ar      1 <0>        -0.0755
     21 O2         -0.5165   -4.4436    9.0649 O.3       1 <0>        -0.3158
     22 C16        -1.5980   -3.6274    9.5188 C.3       1 <0>         0.0256
     23 O3         -0.1027   -1.5582   -4.7757 O.3       1 <0>        -0.2111
     24 C17        -1.1479   -1.9802   -5.5294 C.ar      1 <0>         0.2839
     25 C18        -2.1637   -2.7416   -4.9777 C.ar      1 <0>        -0.2620
     26 C19        -3.2216   -3.1594   -5.7746 C.ar      1 <0>         0.2251
     27 N5         -3.2910   -2.8530   -7.0490 N.ar      1 <0>        -0.4812
     28 C20        -2.3445   -2.1205   -7.6473 C.ar      1 <0>         0.1825
     29 C21        -1.2365   -1.6513   -6.9003 C.ar      1 <0>        -0.0894
     30 C22        -0.2481   -0.8786   -7.5292 C.ar      1 <0>        -0.1372
     31 C23        -0.3662   -0.5806   -8.8556 C.ar      1 <0>         0.1353
     32 C24        -1.4654   -1.0387   -9.5967 C.ar      1 <0>         0.2168
     33 C25        -2.4345   -1.8022   -9.0129 C.ar      1 <0>        -0.2364
     34 O4         -1.5605   -0.7287  -10.9163 O.3       1 <0>        -0.2774
     35 C26        -2.7025   -1.2236  -11.6184 C.3       1 <0>         0.0116
     36 O5          0.5912    0.1685   -9.4649 O.3       1 <0>        -0.2864
     37 C27         1.6854    0.6054   -8.6563 C.3       1 <0>         0.0147
     38 H1         -0.1649    1.4210    0.1556 H         1 <0>         0.0795
     39 H2         -1.6152    1.0663   -0.8133 H         1 <0>         0.0878
     40 H3         -1.6792    0.9460    0.9614 H         1 <0>         0.0981
     41 H4         -0.6736    0.0532   -2.8045 H         1 <0>         0.1452
     42 H5          0.5020   -3.9242   -3.8396 H         1 <0>         0.1423
     43 H6          0.5385   -4.5605   -1.4842 H         1 <0>         0.1438
     44 H7          0.3978   -4.6104    1.0793 H         1 <0>         0.4208
     45 H8          0.6054   -5.5640    3.2023 H         1 <0>         0.4092
     46 H9          1.7163   -5.9690    5.4528 H         1 <0>         0.1345
     47 H10         1.3597   -5.8360    7.8842 H         1 <0>         0.1383
     48 H11        -1.9551   -3.2134    7.2565 H         1 <0>         0.1330
     49 H12        -1.5939   -3.3370    4.8253 H         1 <0>         0.1376
     50 H13        -2.5344   -4.0021    9.1055 H         1 <0>         0.0565
     51 H14        -1.6437   -3.6572   10.6075 H         1 <0>         0.1029
     52 H15        -1.4410   -2.6002    9.1898 H         1 <0>         0.0568
     53 H16        -2.1336   -3.0099   -3.9320 H         1 <0>         0.1864
     54 H17        -4.0086   -3.7530   -5.3336 H         1 <0>         0.2123
     55 H18         0.6014   -0.5214   -6.9662 H         1 <0>         0.1730
     56 H19        -3.2752   -2.1489   -9.5956 H         1 <0>         0.1714
     57 H20        -3.6097   -0.8308  -11.1591 H         1 <0>         0.0694
     58 H21        -2.6551   -0.9049  -12.6596 H         1 <0>         0.1216
     59 H22        -2.7138   -2.3125  -11.5718 H         1 <0>         0.0696
     60 H23         1.3099    1.2195   -7.8379 H         1 <0>         0.0671
     61 H24         2.2063   -0.2619   -8.2505 H         1 <0>         0.0675
     62 H25         2.3747    1.1917   -9.2639 H         1 <0>         0.1187
     63 H26        -4.0471   -3.1656   -7.5701 H         1 <0>         0.4476
@<TRIPOS>BOND
     1    1    2 1
     2    1   38 1
     3    1   39 1
     4    1   40 1
     5    2   10 1
     6    2    3 1
     7    3    8 ar
     8    3    4 ar
     9    4    5 ar
    10    4   41 1
    11    5    6 ar
    12    5   23 1
    13    6    7 ar
    14    6   42 1
    15    7    8 ar
    16    7   43 1
    17    8    9 1
    18    9   10 2
    19    9   11 1
    20   11   12 am
    21   11   44 1
    22   12   13 2
    23   12   14 am
    24   14   15 1
    25   14   45 1
    26   15   20 ar
    27   15   16 ar
    28   16   17 ar
    29   16   46 1
    30   17   18 ar
    31   17   47 1
    32   18   19 ar
    33   18   21 1
    34   19   20 ar
    35   19   48 1
    36   20   49 1
    37   21   22 1
    38   22   50 1
    39   22   51 1
    40   22   52 1
    41   23   24 1
    42   24   29 ar
    43   24   25 ar
    44   25   26 ar
    45   25   53 1
    46   26   27 ar
    47   26   54 1
    48   27   28 ar
    49   27   63 1
    50   28   33 ar
    51   28   29 ar
    52   29   30 ar
    53   30   31 ar
    54   30   55 1
    55   31   32 ar
    56   31   36 1
    57   32   33 ar
    58   32   34 1
    59   33   56 1
    60   34   35 1
    61   35   57 1
    62   35   58 1
    63   35   59 1
    64   36   37 1
    65   37   60 1
    66   37   61 1
    67   37   62 1
@<TRIPOS>MOLECULE
CHEMBL522601
   58    62     0     0     0
SMALL
USER_CHARGES

@<TRIPOS>ATOM
      1 C1         -0.0166    1.3751    0.0096 C.ar      1 <0>        -0.0783
      2 C2          1.1704    2.0928    0.0021 C.ar      1 <0>        -0.0939
      3 C3          2.3783    1.4353   -0.0134 C.ar      1 <0>        -0.0780
      4 C4          2.4235    0.0397   -0.0212 C.ar      1 <0>        -0.1588
      5 C5          1.2175   -0.6883   -0.0132 C.ar      1 <0>         0.0342
      6 C6          0.0021   -0.0041    0.0020 C.ar      1 <0>        -0.1006
      7 C7          1.2398   -2.1641   -0.0215 C.2       1 <0>         0.1293
      8 C8          0.4059   -2.9642    0.6912 C.2       1 <0>        -0.1844
      9 C9          0.7765   -4.3445    0.3870 C.ar      1 <0>        -0.0725
     10 C10         0.2944   -5.5894    0.8048 C.ar      1 <0>        -0.0989
     11 C11         0.8757   -6.7432    0.3203 C.ar      1 <0>         0.0869
     12 C12         1.9370   -6.6708   -0.5792 C.ar      1 <0>        -0.1777
     13 C13         2.4204   -5.4514   -0.9978 C.ar      1 <0>        -0.0853
     14 C14         1.8489   -4.2754   -0.5225 C.ar      1 <0>         0.0865
     15 N1          2.1054   -2.9412   -0.7574 N.pl3     1 <0>        -0.5627
     16 H1          2.7941   -2.6013   -1.3500 H         1 <0>         0.4209
     17 O1          0.4110   -7.9561    0.7230 O.3       1 <0>        -0.3149
     18 C15         1.0577   -9.1104    0.1832 C.3       1 <0>         0.0648
     19 C16         0.4027  -10.3727    0.7476 C.3       1 <0>        -0.1512
     20 C17         1.0951  -11.6086    0.1696 C.3       1 <0>        -0.0060
     21 N2          0.4662  -12.8205    0.7115 N.4       1 <0>        -0.3839
     22 C18         0.6916  -12.8808    2.1606 C.3       1 <0>        -0.0089
     23 C19        -0.0299  -14.0983    2.7427 C.3       1 <0>        -0.1435
     24 C20         0.5154  -15.3699    2.0863 C.3       1 <0>         0.0957
     25 C21         0.3424  -15.2636    0.5684 C.3       1 <0>        -0.1838
     26 C22         1.0501  -14.0030    0.0669 C.3       1 <0>        -0.0022
     27 O2         -0.2054  -16.5046    2.5711 O.3       1 <0>        -0.5530
     28 C23         3.8347   -0.3785   -0.0379 C.2       1 <0>         0.5599
     29 O3          4.2169   -1.5328   -0.0486 O.2       1 <0>        -0.5274
     30 N3          4.6407    0.6972   -0.0405 N.am      1 <0>        -0.7190
     31 C24         3.8110    1.9074   -0.0255 C.3       1 <0>         0.1363
     32 H2         -0.9608    1.8992    0.0259 H         1 <0>         0.1435
     33 H3          1.1460    3.1725    0.0081 H         1 <0>         0.1389
     34 H4         -0.9265   -0.5555    0.0079 H         1 <0>         0.1427
     35 H5         -0.3813   -2.6418    1.3566 H         1 <0>         0.1530
     36 H6         -0.5279   -5.6471    1.5026 H         1 <0>         0.1321
     37 H7          2.3852   -7.5800   -0.9516 H         1 <0>         0.1270
     38 H8          3.2436   -5.4078   -1.6955 H         1 <0>         0.1259
     39 H9          0.9622   -9.1059   -0.9026 H         1 <0>         0.0701
     40 H10         2.1131   -9.0961    0.4552 H         1 <0>         0.0699
     41 H11         0.4982  -10.3772    1.8334 H         1 <0>         0.0990
     42 H12        -0.6527  -10.3870    0.4756 H         1 <0>         0.0994
     43 H13         0.9996  -11.6041   -0.9162 H         1 <0>         0.1361
     44 H14         2.1505  -11.5943    0.4416 H         1 <0>         0.1343
     45 H15         1.7603  -12.9635    2.3585 H         1 <0>         0.1327
     46 H16         0.3059  -11.9737    2.6259 H         1 <0>         0.1404
     47 H17         0.1402  -14.1423    3.8184 H         1 <0>         0.1203
     48 H18        -1.0988  -14.0165    2.5456 H         1 <0>         0.0969
     49 H19         1.5731  -15.4790    2.3258 H         1 <0>         0.0734
     50 H20         0.7785  -16.1405    0.0900 H         1 <0>         0.1152
     51 H21        -0.7188  -15.2060    0.3262 H         1 <0>         0.0974
     52 H22         0.9290  -13.9243   -1.0135 H         1 <0>         0.1350
     53 H23         2.1111  -14.0617    0.3094 H         1 <0>         0.1313
     54 H24         0.0881  -17.3464    2.1964 H         1 <0>         0.3943
     55 H25         5.6105    0.6768   -0.0502 H         1 <0>         0.4289
     56 H26         4.0016    2.5035   -0.9180 H         1 <0>         0.1035
     57 H27         4.0199    2.4940    0.8692 H         1 <0>         0.1035
     58 H28        -0.5257  -12.7942    0.5283 H         1 <0>         0.4256
@<TRIPOS>BOND
     1    1    6 ar
     2    1    2 ar
     3    1   32 1
     4    2    3 ar
     5    2   33 1
     6    3   31 1
     7    3    4 ar
     8    4    5 ar
     9    4   28 1
    10    5    6 ar
    11    5    7 1
    12    6   34 1
    13    7   15 1
    14    7    8 2
    15    8    9 1
    16    8   35 1
    17    9   14 ar
    18    9   10 ar
    19   10   11 ar
    20   10   36 1
    21   11   12 ar
    22   11   17 1
    23   12   13 ar
    24   12   37 1
    25   13   14 ar
    26   13   38 1
    27   14   15 1
    28   15   16 1
    29   17   18 1
    30   18   19 1
    31   18   39 1
    32   18   40 1
    33   19   20 1
    34   19   41 1
    35   19   42 1
    36   20   21 1
    37   20   43 1
    38   20   44 1
    39   21   26 1
    40   21   22 1
    41   21   58 1
    42   22   23 1
    43   22   45 1
    44   22   46 1
    45   23   24 1
    46   23   47 1
    47   23   48 1
    48   24   25 1
    49   24   27 1
    50   24   49 1
    51   25   26 1
    52   25   50 1
    53   25   51 1
    54   26   52 1
    55   26   53 1
    56   27   54 1
    57   28   29 2
    58   28   30 am
    59   30   31 1
    60   30   55 1
    61   31   56 1
    62   31   57 1
@<TRIPOS>MOLECULE
CHEMBL495763
   54    58     0     0     0
SMALL
USER_CHARGES

@<TRIPOS>ATOM
      1 C1          0.5159    1.7630    0.0433 C.3       1 <0>        -0.1519
      2 C2          0.5305    0.2642   -0.1131 C.ar      1 <0>        -0.0063
      3 C3          0.6611   -0.3003   -1.3621 C.ar      1 <0>        -0.1544
      4 C4          0.6750   -1.6797   -1.5106 C.ar      1 <0>        -0.0423
      5 C5          0.5588   -2.5065   -0.4136 C.ar      1 <0>        -0.1735
      6 C6          0.4259   -1.9586    0.8577 C.ar      1 <0>         0.2123
      7 C7          0.4175   -0.5604    1.0094 C.ar      1 <0>        -0.1526
      8 C8          0.2824    0.0097    2.3561 C.2       1 <0>         0.3654
      9 C9          0.1732   -0.8695    3.4350 C.2       1 <0>        -0.2663
     10 C10         0.1954   -2.2656    3.2045 C.2       1 <0>         0.5745
     11 O1          0.0991   -3.0259    4.1521 O.2       1 <0>        -0.5631
     12 N1          0.3080   -2.7735    1.9661 N.am      1 <0>        -0.6322
     13 H1          0.3189   -3.7364    1.8488 H         1 <0>         0.4201
     14 C11         0.0362   -0.3472    4.8051 C.2       1 <0>         0.3832
     15 N2         -0.1081    0.9190    5.1202 N.2       1 <0>        -0.5052
     16 C12        -0.2052    1.0452    6.4681 C.ar      1 <0>         0.0261
     17 C13        -0.3663    2.1441    7.3182 C.ar      1 <0>        -0.0202
     18 C14        -0.4325    1.9579    8.6694 C.ar      1 <0>        -0.1834
     19 C15        -0.3409    0.6787    9.2142 C.ar      1 <0>         0.2068
     20 C16        -0.1812   -0.4227    8.3888 C.ar      1 <0>        -0.1832
     21 C17        -0.1126   -0.2466    7.0148 C.ar      1 <0>         0.0881
     22 N3          0.0341   -1.1106    5.9446 N.pl3     1 <0>        -0.5847
     23 N4         -0.4102    0.5057   10.6004 N.pl3     1 <0>        -0.6428
     24 C18        -0.4340   -0.8398   11.1945 C.3       1 <0>         0.0989
     25 C19         0.6326   -0.9049   12.2926 C.3       1 <0>        -0.0231
     26 N5          0.4134    0.1851   13.2518 N.4       1 <0>        -0.3837
     27 C20         0.6072    1.4810   12.5891 C.3       1 <0>        -0.0232
     28 C21        -0.4550    1.6642   11.5059 C.3       1 <0>         0.1009
     29 C22         1.3670    0.0573   14.3619 C.3       1 <0>        -0.0468
     30 N6          0.2644    1.3702    2.5487 N.pl3     1 <0>        -0.8333
     31 H2          1.5143    2.1104    0.3087 H         1 <0>         0.0825
     32 H3          0.2088    2.2233   -0.8958 H         1 <0>         0.0795
     33 H4         -0.1861    2.0394    0.8300 H         1 <0>         0.0978
     34 H5          0.7528    0.3343   -2.2312 H         1 <0>         0.1360
     35 H6          0.7776   -2.1103   -2.4957 H         1 <0>         0.1386
     36 H7          0.5706   -3.5788   -0.5413 H         1 <0>         0.1395
     37 H8         -0.4379    3.1398    6.9061 H         1 <0>         0.1346
     38 H9         -0.5565    2.8098    9.3216 H         1 <0>         0.1288
     39 H10        -0.1108   -1.4133    8.8132 H         1 <0>         0.1214
     40 H11        -1.4162   -1.0323   11.6261 H         1 <0>         0.0877
     41 H12        -0.2157   -1.5828   10.4274 H         1 <0>         0.1255
     42 H13         0.5648   -1.8625   12.8089 H         1 <0>         0.1401
     43 H14         1.6214   -0.8021   11.8455 H         1 <0>         0.1322
     44 H15         0.5206    2.2815   13.3238 H         1 <0>         0.1411
     45 H16         1.5967    1.5115   12.1330 H         1 <0>         0.1322
     46 H17        -0.2506    2.5760   10.9446 H         1 <0>         0.1280
     47 H18        -1.4394    1.7289   11.9694 H         1 <0>         0.0870
     48 H19         2.3845    0.1122   13.9749 H         1 <0>         0.1213
     49 H20         1.2052    0.8659   15.0747 H         1 <0>         0.1250
     50 H21         1.2187   -0.9009   14.8597 H         1 <0>         0.1245
     51 H22        -0.3802    1.7656    3.1562 H         1 <0>         0.4218
     52 H23         0.8964    1.9353    2.0772 H         1 <0>         0.4115
     53 H24        -0.5276    0.1303   13.6120 H         1 <0>         0.4247
     54 H25         0.1212   -2.0755    5.9913 H         1 <0>         0.4346
@<TRIPOS>BOND
     1    1    2 1
     2    1   31 1
     3    1   32 1
     4    1   33 1
     5    2    7 ar
     6    2    3 ar
     7    3    4 ar
     8    3   34 1
     9    4    5 ar
    10    4   35 1
    11    5    6 ar
    12    5   36 1
    13    6   12 1
    14    6    7 ar
    15    7    8 1
    16    8    9 2
    17    8   30 1
    18    9   10 1
    19    9   14 1
    20   10   11 2
    21   10   12 am
    22   12   13 1
    23   14   22 1
    24   14   15 2
    25   15   16 1
    26   16   21 ar
    27   16   17 ar
    28   17   18 ar
    29   17   37 1
    30   18   19 ar
    31   18   38 1
    32   19   20 ar
    33   19   23 1
    34   20   21 ar
    35   20   39 1
    36   21   22 1
    37   22   54 1
    38   23   28 1
    39   23   24 1
    40   24   25 1
    41   24   40 1
    42   24   41 1
    43   25   26 1
    44   25   42 1
    45   25   43 1
    46   26   27 1
    47   26   29 1
    48   26   53 1
    49   27   28 1
    50   27   44 1
    51   27   45 1
    52   28   46 1
    53   28   47 1
    54   29   48 1
    55   29   49 1
    56   29   50 1
    57   30   51 1
    58   30   52 1
@<TRIPOS>MOLECULE
CHEMBL495763__1
   53    57     0     0     0
SMALL
USER_CHARGES

@<TRIPOS>ATOM
      1 C1          0.4333    1.6049    0.4326 C.3       1 <0>        -0.1515
      2 C2          0.4444    0.1003    0.3480 C.ar      1 <0>        -0.0070
      3 C3          0.5676   -0.5235   -0.8733 C.ar      1 <0>        -0.1572
      4 C4          0.5783   -1.9085   -0.9557 C.ar      1 <0>        -0.0467
      5 C5          0.4655   -2.6816    0.1801 C.ar      1 <0>        -0.1746
      6 C6          0.3400   -2.0733    1.4244 C.ar      1 <0>         0.2122
      7 C7          0.3354   -0.6695    1.5091 C.ar      1 <0>        -0.1488
      8 C8          0.2081   -0.0353    2.8277 C.2       1 <0>         0.3566
      9 C9          0.1027   -0.8620    3.9481 C.2       1 <0>        -0.2560
     10 C10         0.1212   -2.2675    3.7844 C.2       1 <0>         0.5718
     11 O1          0.0286   -2.9816    4.7676 O.2       1 <0>        -0.5567
     12 N1          0.2258   -2.8342    2.5710 N.am      1 <0>        -0.6336
     13 H1          0.2343   -3.8015    2.4997 H         1 <0>         0.4186
     14 C11        -0.0265   -0.2747    5.2921 C.2       1 <0>         0.3797
     15 N2         -0.0181   -0.9815    6.4656 N.pl3     1 <0>        -0.5826
     16 H2          0.0726   -1.9428    6.5583 H         1 <0>         0.4312
     17 C12        -0.1633   -0.0659    7.4955 C.ar      1 <0>        -0.0032
     18 C13        -0.2256   -0.1780    8.8767 C.ar      1 <0>        -0.0615
     19 C14        -0.3794    0.9509    9.6529 C.ar      1 <0>        -0.1715
     20 C15        -0.4734    2.2076    9.0583 C.ar      1 <0>         0.2150
     21 C16        -0.4135    2.3362    7.6833 C.ar      1 <0>        -0.1682
     22 C17        -0.2568    1.1975    6.8867 C.ar      1 <0>         0.1074
     23 N3         -0.1615    1.0068    5.5475 N.2       1 <0>        -0.5206
     24 N4         -0.6297    3.3456    9.8574 N.pl3     1 <0>        -0.6320
     25 C18        -0.8146    3.2272   11.3117 C.3       1 <0>         0.1275
     26 C19         0.1955    4.1460   12.0072 C.3       1 <0>         0.0381
     27 N5          0.0626    5.5079   11.4730 N.3       1 <0>        -0.5425
     28 C20         0.3886    5.5530   10.0414 C.3       1 <0>         0.0386
     29 C21        -0.6075    4.6921    9.2661 C.3       1 <0>         0.1275
     30 C22         0.8913    6.4542   12.2317 C.3       1 <0>         0.0244
     31 N6          0.1936    1.3325    2.9552 N.pl3     1 <0>        -0.8331
     32 H3          1.4337    1.9625    0.6763 H         1 <0>         0.0818
     33 H4          0.1224    2.0204   -0.5259 H         1 <0>         0.0772
     34 H5         -0.2642    1.9200    1.2087 H         1 <0>         0.0991
     35 H6          0.6562    0.0686   -1.7721 H         1 <0>         0.1337
     36 H7          0.6755   -2.3858   -1.9196 H         1 <0>         0.1360
     37 H8          0.4743   -3.7589    0.1036 H         1 <0>         0.1378
     38 H9         -0.1541   -1.1492    9.3438 H         1 <0>         0.1223
     39 H10        -0.4276    0.8608   10.7281 H         1 <0>         0.1296
     40 H11        -0.4875    3.3119    7.2261 H         1 <0>         0.1264
     41 H12        -1.8276    3.5288   11.5778 H         1 <0>         0.0694
     42 H13        -0.6439    2.1956   11.6197 H         1 <0>         0.0863
     43 H14         0.0005    4.1552   13.0796 H         1 <0>         0.0849
     44 H15         1.2059    3.7804   11.8240 H         1 <0>         0.0383
     45 H16         0.3336    6.5826    9.6880 H         1 <0>         0.0852
     46 H17         1.3963    5.1679    9.8855 H         1 <0>         0.0377
     47 H18        -0.2999    4.6286    8.2223 H         1 <0>         0.0871
     48 H19        -1.6003    5.1373    9.3318 H         1 <0>         0.0684
     49 H20         1.9372    6.1541   12.1672 H         1 <0>         0.0253
     50 H21         0.7741    7.4547   11.8153 H         1 <0>         0.0698
     51 H22         0.5776    6.4561   13.2756 H         1 <0>         0.0701
     52 H23        -0.4473    1.7577    3.5462 H         1 <0>         0.4227
     53 H24         0.8243    1.8730    2.4542 H         1 <0>         0.4093
@<TRIPOS>BOND
     1    1    2 1
     2    1   32 1
     3    1   33 1
     4    1   34 1
     5    2    7 ar
     6    2    3 ar
     7    3    4 ar
     8    3   35 1
     9    4    5 ar
    10    4   36 1
    11    5    6 ar
    12    5   37 1
    13    6   12 1
    14    6    7 ar
    15    7    8 1
    16    8    9 2
    17    8   31 1
    18    9   10 1
    19    9   14 1
    20   10   11 2
    21   10   12 am
    22   12   13 1
    23   14   23 2
    24   14   15 1
    25   15   16 1
    26   15   17 1
    27   17   22 ar
    28   17   18 ar
    29   18   19 ar
    30   18   38 1
    31   19   20 ar
    32   19   39 1
    33   20   21 ar
    34   20   24 1
    35   21   22 ar
    36   21   40 1
    37   22   23 1
    38   24   29 1
    39   24   25 1
    40   25   26 1
    41   25   41 1
    42   25   42 1
    43   26   27 1
    44   26   43 1
    45   26   44 1
    46   27   28 1
    47   27   30 1
    48   28   29 1
    49   28   45 1
    50   28   46 1
    51   29   47 1
    52   29   48 1
    53   30   49 1
    54   30   50 1
    55   30   51 1
    56   31   52 1
    57   31   53 1
@<TRIPOS>MOLECULE
CHEMBL495763__2
   54    58     0     0     0
SMALL
USER_CHARGES

@<TRIPOS>ATOM
      1 C1          0.4385    1.6081    0.4485 C.3       1 <0>        -0.1511
      2 C2          0.4490    0.1037    0.3611 C.ar      1 <0>        -0.0068
      3 C3          0.5724   -0.5178   -0.8613 C.ar      1 <0>        -0.1548
      4 C4          0.5826   -1.9027   -0.9463 C.ar      1 <0>        -0.0415
      5 C5          0.4693   -2.6779    0.1880 C.ar      1 <0>        -0.1732
      6 C6          0.3436   -2.0719    1.4333 C.ar      1 <0>         0.2142
      7 C7          0.3395   -0.6682    1.5207 C.ar      1 <0>        -0.1542
      8 C8          0.2121   -0.0364    2.8404 C.2       1 <0>         0.3680
      9 C9          0.1060   -0.8651    3.9593 C.2       1 <0>        -0.2685
     10 C10         0.1241   -2.2704    3.7929 C.2       1 <0>         0.5735
     11 O1          0.0310   -2.9863    4.7748 O.2       1 <0>        -0.5587
     12 N1          0.2288   -2.8348    2.5785 N.am      1 <0>        -0.6321
     13 H1          0.2370   -3.8020    2.5054 H         1 <0>         0.4209
     14 C11        -0.0232   -0.2803    5.3043 C.2       1 <0>         0.3995
     15 N2         -0.0154   -0.9894    6.4766 N.pl3     1 <0>        -0.5809
     16 H2          0.0749   -1.9509    6.5674 H         1 <0>         0.4362
     17 C12        -0.1606   -0.0756    7.5080 C.ar      1 <0>         0.0101
     18 C13        -0.2233   -0.1903    8.8891 C.ar      1 <0>        -0.0547
     19 C14        -0.3769    0.9373    9.6673 C.ar      1 <0>        -0.1702
     20 C15        -0.4703    2.1952    9.0750 C.ar      1 <0>         0.1908
     21 C16        -0.4100    2.3263    7.7003 C.ar      1 <0>        -0.1502
     22 C17        -0.2534    1.1890    6.9016 C.ar      1 <0>         0.1055
     23 N3         -0.1579    1.0007    5.5620 N.2       1 <0>        -0.5234
     24 N4         -0.6264    3.3317    9.8762 N.pl3     1 <0>        -0.6443
     25 C18        -0.6103    4.6799    9.2879 C.3       1 <0>         0.0999
     26 C19        -1.8413    5.4429    9.7882 C.3       1 <0>        -0.0233
     27 N5         -1.8653    5.4225   11.2562 N.4       1 <0>        -0.3836
     28 C20        -2.0333    4.0445   11.7346 C.3       1 <0>        -0.0231
     29 C21        -0.8175    3.2119   11.3299 C.3       1 <0>         0.1013
     30 C22        -2.9828    6.2457   11.7374 C.3       1 <0>        -0.0469
     31 N6          0.1980    1.3311    2.9705 N.pl3     1 <0>        -0.8334
     32 H3          1.4389    1.9649    0.6931 H         1 <0>         0.0822
     33 H4          0.1279    2.0256   -0.5093 H         1 <0>         0.0792
     34 H5         -0.2592    1.9221    1.2249 H         1 <0>         0.0970
     35 H6          0.6614    0.0759   -1.7591 H         1 <0>         0.1359
     36 H7          0.6799   -2.3782   -1.9111 H         1 <0>         0.1389
     37 H8          0.4777   -3.7550    0.1095 H         1 <0>         0.1402
     38 H9         -0.1522   -1.1623    9.3543 H         1 <0>         0.1288
     39 H10        -0.4254    0.8452   10.7423 H         1 <0>         0.1293
     40 H11        -0.4835    3.3028    7.2449 H         1 <0>         0.1268
     41 H12         0.2950    5.2030    9.5957 H         1 <0>         0.0864
     42 H13        -0.6423    4.6056    8.2009 H         1 <0>         0.1274
     43 H14        -1.7957    6.4747    9.4397 H         1 <0>         0.1398
     44 H15        -2.7441    4.9687    9.4033 H         1 <0>         0.1322
     45 H16        -2.1293    4.0458   12.8203 H         1 <0>         0.1402
     46 H17        -2.9303    3.6126   11.2908 H         1 <0>         0.1320
     47 H18        -0.9864    2.1675   11.5923 H         1 <0>         0.1263
     48 H19         0.0665    3.5843   11.8474 H         1 <0>         0.0859
     49 H20        -3.9208    5.8457   11.3524 H         1 <0>         0.1212
     50 H21        -3.0017    6.2314   12.8271 H         1 <0>         0.1245
     51 H22        -2.8550    7.2708   11.3896 H         1 <0>         0.1245
     52 H23        -0.4429    1.7555    3.5621 H         1 <0>         0.4209
     53 H24         0.8290    1.8723    2.4706 H         1 <0>         0.4113
     54 H25        -0.9980    5.7969   11.6108 H         1 <0>         0.4244
@<TRIPOS>BOND
     1    1    2 1
     2    1   32 1
     3    1   33 1
     4    1   34 1
     5    2    7 ar
     6    2    3 ar
     7    3    4 ar
     8    3   35 1
     9    4    5 ar
    10    4   36 1
    11    5    6 ar
    12    5   37 1
    13    6   12 1
    14    6    7 ar
    15    7    8 1
    16    8    9 2
    17    8   31 1
    18    9   10 1
    19    9   14 1
    20   10   11 2
    21   10   12 am
    22   12   13 1
    23   14   23 2
    24   14   15 1
    25   15   16 1
    26   15   17 1
    27   17   22 ar
    28   17   18 ar
    29   18   19 ar
    30   18   38 1
    31   19   20 ar
    32   19   39 1
    33   20   21 ar
    34   20   24 1
    35   21   22 ar
    36   21   40 1
    37   22   23 1
    38   24   29 1
    39   24   25 1
    40   25   26 1
    41   25   41 1
    42   25   42 1
    43   26   27 1
    44   26   43 1
    45   26   44 1
    46   27   28 1
    47   27   30 1
    48   27   54 1
    49   28   29 1
    50   28   45 1
    51   28   46 1
    52   29   47 1
    53   29   48 1
    54   30   49 1
    55   30   50 1
    56   30   51 1
    57   31   52 1
    58   31   53 1
@<TRIPOS>MOLECULE
CHEMBL360118
   70    73     0     0     0
SMALL
USER_CHARGES

@<TRIPOS>ATOM
      1 C1          0.2853    1.4904   -0.0006 C.3       1 <0>        -0.1093
      2 C2          0.1614   -0.0115   -0.0026 C.ar      1 <0>        -0.1241
      3 C3         -0.2137   -0.6715   -1.1576 C.ar      1 <0>        -0.0858
      4 C4         -0.3284   -2.0478   -1.1636 C.ar      1 <0>        -0.1546
      5 C5         -0.0662   -2.7727   -0.0072 C.ar      1 <0>         0.1478
      6 C6          0.3110   -2.1115    1.1534 C.ar      1 <0>        -0.1759
      7 C7          0.4296   -0.7304    1.1537 C.ar      1 <0>         0.1236
      8 O1          0.8038   -0.0804    2.2870 O.3       1 <0>        -0.4930
      9 N1         -0.1827   -4.1655   -0.0128 N.pl3     1 <0>        -0.6159
     10 C8         -0.2449   -4.8488   -1.2123 C.2       1 <0>         0.5234
     11 C9         -0.2267   -6.2622   -1.2322 C.2       1 <0>        -0.0850
     12 C10        -0.1547   -7.2302   -0.2491 C.2       1 <0>        -0.1084
     13 C11        -0.1762   -8.4713   -0.8956 C.2       1 <0>         0.0979
     14 C12        -0.2594   -8.2416   -2.2376 C.2       1 <0>         0.0558
     15 N2         -0.2907   -6.9058   -2.4533 N.pl3     1 <0>        -0.2306
     16 N3         -0.3700   -6.1238   -3.6143 N.2       1 <0>        -0.3415
     17 C13        -0.3820   -4.8220   -3.5255 C.2       1 <0>         0.3243
     18 N4         -0.3277   -4.1882   -2.3556 N.2       1 <0>        -0.6014
     19 N5         -0.1213   -9.7309   -0.2727 N.am      1 <0>        -0.6494
     20 C14        -0.1504  -10.8532   -1.0183 C.2       1 <0>         0.7063
     21 O2         -0.2241  -10.7767   -2.2296 O.2       1 <0>        -0.5669
     22 N6         -0.0978  -12.0604   -0.4213 N.am      1 <0>        -0.7467
     23 C15        -0.1294  -13.2804   -1.2317 C.3       1 <0>         0.1432
     24 C16        -0.0574  -14.5035   -0.3153 C.3       1 <0>        -0.1636
     25 C17        -0.0904  -15.7776   -1.1617 C.3       1 <0>        -0.0059
     26 N7         -0.0213  -16.9519   -0.2818 N.4       1 <0>        -0.3821
     27 C18         1.2736  -16.9682    0.4091 C.3       1 <0>        -0.0128
     28 C19         1.3193  -18.1440    1.3873 C.3       1 <0>        -0.1458
     29 C20         1.1356  -19.4524    0.6131 C.3       1 <0>        -0.1402
     30 C21        -0.1833  -19.3941   -0.1630 C.3       1 <0>        -0.1464
     31 C22        -0.1733  -18.1719   -1.0837 C.3       1 <0>        -0.0069
     32 C23        -0.0686   -6.9946    1.2369 C.3       1 <0>        -0.0268
     33 C24        -1.2652   -7.6517    1.9277 C.3       1 <0>        -0.1455
     34 C25         1.2281   -7.6026    1.7753 C.3       1 <0>        -0.1449
     35 H1          1.3010    1.7715   -0.2791 H         1 <0>         0.0720
     36 H2         -0.4184    1.9140   -0.7172 H         1 <0>         0.0669
     37 H3          0.0630    1.8720    0.9960 H         1 <0>         0.0667
     38 H4         -0.4178   -0.1098   -2.0572 H         1 <0>         0.1318
     39 H5         -0.6223   -2.5610   -2.0672 H         1 <0>         0.1965
     40 H6          0.5153   -2.6723    2.0535 H         1 <0>         0.1287
     41 H7          0.0647    0.1773    2.8548 H         1 <0>         0.3901
     42 H8         -0.2198   -4.6524    0.8253 H         1 <0>         0.4206
     43 H9         -0.2947   -9.0021   -3.0036 H         1 <0>         0.2050
     44 H10        -0.4436   -4.2383   -4.4321 H         1 <0>         0.2244
     45 H11        -0.0625   -9.7919    0.6936 H         1 <0>         0.4095
     46 H12        -0.0390  -12.1214    0.5450 H         1 <0>         0.3998
     47 H13        -1.0551  -13.3110   -1.8064 H         1 <0>         0.0804
     48 H14         0.7215  -13.2862   -1.9130 H         1 <0>         0.0801
     49 H15         0.8683  -14.4729    0.2593 H         1 <0>         0.0949
     50 H16        -0.9083  -14.4977    0.3659 H         1 <0>         0.0953
     51 H17        -1.0162  -15.8082   -1.7364 H         1 <0>         0.1367
     52 H18         0.7604  -15.7834   -1.8429 H         1 <0>         0.1348
     53 H19         2.0742  -17.0738   -0.3229 H         1 <0>         0.1295
     54 H20         1.4042  -16.0350    0.9571 H         1 <0>         0.1303
     55 H21         2.2822  -18.1553    1.8980 H         1 <0>         0.1119
     56 H22         0.5192  -18.0392    2.1200 H         1 <0>         0.0873
     57 H23         1.9633  -19.5827   -0.0841 H         1 <0>         0.0821
     58 H24         1.1108  -20.2889    1.3116 H         1 <0>         0.0944
     59 H25        -0.2944  -20.2989   -0.7604 H         1 <0>         0.1128
     60 H26        -1.0146  -19.3152    0.5376 H         1 <0>         0.0876
     61 H27        -1.1109  -18.1274   -1.6379 H         1 <0>         0.1313
     62 H28         0.6582  -18.2519   -1.7839 H         1 <0>         0.1294
     63 H29        -0.0775   -5.9230    1.4360 H         1 <0>         0.0692
     64 H30        -1.2563   -8.7233    1.7286 H         1 <0>         0.0524
     65 H31        -1.2029   -7.4812    3.0025 H         1 <0>         0.0679
     66 H32        -2.1890   -7.2185    1.5441 H         1 <0>         0.0623
     67 H33         2.0807   -7.1345    1.2832 H         1 <0>         0.0623
     68 H34         1.2904   -7.4322    2.8501 H         1 <0>         0.0676
     69 H35         1.2371   -8.6742    1.5763 H         1 <0>         0.0523
     70 H36        -0.7635  -16.9042    0.4000 H         1 <0>         0.4225
@<TRIPOS>BOND
     1    1    2 1
     2    1   35 1
     3    1   36 1
     4    1   37 1
     5    2    7 ar
     6    2    3 ar
     7    3    4 ar
     8    3   38 1
     9    4    5 ar
    10    4   39 1
    11    5    6 ar
    12    5    9 1
    13    6    7 ar
    14    6   40 1
    15    7    8 1
    16    8   41 1
    17    9   10 1
    18    9   42 1
    19   10   18 2
    20   10   11 1
    21   11   15 1
    22   11   12 2
    23   12   13 1
    24   12   32 1
    25   13   14 2
    26   13   19 1
    27   14   15 1
    28   14   43 1
    29   15   16 1
    30   16   17 2
    31   17   18 1
    32   17   44 1
    33   19   20 am
    34   19   45 1
    35   20   21 2
    36   20   22 am
    37   22   23 1
    38   22   46 1
    39   23   24 1
    40   23   47 1
    41   23   48 1
    42   24   25 1
    43   24   49 1
    44   24   50 1
    45   25   26 1
    46   25   51 1
    47   25   52 1
    48   26   31 1
    49   26   27 1
    50   26   70 1
    51   27   28 1
    52   27   53 1
    53   27   54 1
    54   28   29 1
    55   28   55 1
    56   28   56 1
    57   29   30 1
    58   29   57 1
    59   29   58 1
    60   30   31 1
    61   30   59 1
    62   30   60 1
    63   31   61 1
    64   31   62 1
    65   32   33 1
    66   32   34 1
    67   32   63 1
    68   33   64 1
    69   33   65 1
    70   33   66 1
    71   34   67 1
    72   34   68 1
    73   34   69 1
@<TRIPOS>MOLECULE
CHEMBL495961
   54    58     0     0     0
SMALL
USER_CHARGES

@<TRIPOS>ATOM
      1 C1         -0.1211    1.5038    0.0369 C.3       1 <0>        -0.0457
      2 N1         -0.0687    0.0358    0.0249 N.4       1 <0>        -0.3882
      3 C2         -1.4353   -0.5027    0.0215 C.3       1 <0>        -0.0021
      4 C3         -1.3812   -2.0317   -0.0099 C.3       1 <0>         0.0245
      5 N2         -0.6477   -2.5174    1.1675 N.3       1 <0>        -0.5344
      6 C4          0.7146   -1.9666    1.1976 C.3       1 <0>         0.0197
      7 C5          0.6432   -0.4382    1.2191 C.3       1 <0>        -0.0025
      8 C6         -0.6228   -3.9857    1.2034 C.3       1 <0>         0.1050
      9 C7         -0.0849   -4.4467    2.5335 C.ar      1 <0>        -0.1046
     10 C8          1.2792   -4.6437    2.6934 C.ar      1 <0>        -0.1134
     11 C9          1.7875   -5.0654    3.9044 C.ar      1 <0>        -0.0993
     12 C10         0.9307   -5.2941    4.9711 C.ar      1 <0>         0.0486
     13 C11        -0.4522   -5.0958    4.8151 C.ar      1 <0>         0.0677
     14 C12        -0.9500   -4.6634    3.5817 C.ar      1 <0>        -0.0466
     15 N3         -1.0370   -5.3907    6.0024 N.2       1 <0>        -0.5386
     16 C13        -0.1185   -5.7530    6.8686 C.2       1 <0>         0.4067
     17 N4          1.1171   -5.7095    6.2775 N.pl3     1 <0>        -0.5817
     18 H1          1.9639   -5.9288    6.6966 H         1 <0>         0.4374
     19 C14        -0.3772   -6.1458    8.2639 C.2       1 <0>        -0.3078
     20 C15        -1.6621   -6.0321    8.7987 C.2       1 <0>         0.3765
     21 C16        -1.8689   -6.4373   10.1951 C.ar      1 <0>        -0.1558
     22 C17        -3.1299   -6.3493   10.7913 C.ar      1 <0>        -0.0488
     23 C18        -3.2930   -6.7339   12.0925 C.ar      1 <0>        -0.1482
     24 C19        -2.2162   -7.2107   12.8266 C.ar      1 <0>        -0.0452
     25 C20        -0.9640   -7.3052   12.2580 C.ar      1 <0>        -0.1649
     26 C21        -0.7747   -6.9202   10.9346 C.ar      1 <0>         0.2176
     27 N5          0.4711   -7.0084   10.3464 N.am      1 <0>        -0.6363
     28 H2          1.2177   -7.3433   10.8674 H         1 <0>         0.4204
     29 C22         0.6737   -6.6461    9.0689 C.2       1 <0>         0.5803
     30 O1          1.7910   -6.7468    8.5926 O.2       1 <0>        -0.5627
     31 N6         -2.7032   -5.5543    8.0403 N.pl3     1 <0>        -0.8025
     32 H3          0.8929    1.9036    0.0381 H         1 <0>         0.1236
     33 H4         -0.6494    1.8557   -0.8492 H         1 <0>         0.1238
     34 H5         -0.6458    1.8414    0.9307 H         1 <0>         0.1226
     35 H6         -1.9567   -0.1760    0.9213 H         1 <0>         0.1371
     36 H7         -1.9666   -0.1397   -0.8583 H         1 <0>         0.1351
     37 H8         -2.3950   -2.4317    0.0026 H         1 <0>         0.1239
     38 H9         -0.8718   -2.3590   -0.9163 H         1 <0>         0.0606
     39 H10         1.2297   -2.3192    2.0911 H         1 <0>         0.1283
     40 H11         1.2585   -2.2929    0.3112 H         1 <0>         0.0604
     41 H12         1.6528   -0.0274    1.2272 H         1 <0>         0.1345
     42 H13         0.1111   -0.1118    2.1127 H         1 <0>         0.1368
     43 H14        -1.6339   -4.3697    1.0675 H         1 <0>         0.0963
     44 H15         0.0177   -4.3579    0.4037 H         1 <0>         0.0563
     45 H16         1.9475   -4.4660    1.8639 H         1 <0>         0.1237
     46 H17         2.8503   -5.2174    4.0217 H         1 <0>         0.1252
     47 H18        -2.0102   -4.5040    3.4511 H         1 <0>         0.1286
     48 H19        -3.9721   -5.9785   10.2260 H         1 <0>         0.1331
     49 H20        -4.2675   -6.6660   12.5532 H         1 <0>         0.1371
     50 H21        -2.3606   -7.5106   13.8541 H         1 <0>         0.1396
     51 H22        -0.1324   -7.6769   12.8382 H         1 <0>         0.1419
     52 H23        -2.5701   -5.3651    7.0983 H         1 <0>         0.4315
     53 H24        -3.5714   -5.4063    8.4468 H         1 <0>         0.4028
     54 H25         0.4175   -0.2765   -0.8022 H         1 <0>         0.4221
@<TRIPOS>BOND
     1    1    2 1
     2    1   32 1
     3    1   33 1
     4    1   34 1
     5    2    7 1
     6    2    3 1
     7    2   54 1
     8    3    4 1
     9    3   35 1
    10    3   36 1
    11    4    5 1
    12    4   37 1
    13    4   38 1
    14    5    6 1
    15    5    8 1
    16    6    7 1
    17    6   39 1
    18    6   40 1
    19    7   41 1
    20    7   42 1
    21    8    9 1
    22    8   43 1
    23    8   44 1
    24    9   14 ar
    25    9   10 ar
    26   10   11 ar
    27   10   45 1
    28   11   12 ar
    29   11   46 1
    30   12   17 1
    31   12   13 ar
    32   13   14 ar
    33   13   15 1
    34   14   47 1
    35   15   16 2
    36   16   17 1
    37   16   19 1
    38   17   18 1
    39   19   29 1
    40   19   20 2
    41   20   21 1
    42   20   31 1
    43   21   26 ar
    44   21   22 ar
    45   22   23 ar
    46   22   48 1
    47   23   24 ar
    48   23   49 1
    49   24   25 ar
    50   24   50 1
    51   25   26 ar
    52   25   51 1
    53   26   27 1
    54   27   28 1
    55   27   29 am
    56   29   30 2
    57   31   52 1
    58   31   53 1
@<TRIPOS>MOLECULE
CHEMBL495961__1
   54    58     0     0     0
SMALL
USER_CHARGES

@<TRIPOS>ATOM
      1 C1         -0.1197    1.5021    0.0431 C.3       1 <0>         0.0196
      2 N1         -0.0682    0.0340    0.0300 N.3       1 <0>        -0.5432
      3 C2         -1.4182   -0.5396   -0.0627 C.3       1 <0>         0.0244
      4 C3         -1.3172   -2.0649   -0.1337 C.3       1 <0>        -0.0027
      5 N2         -0.6346   -2.5670    1.0660 N.4       1 <0>        -0.3855
      6 C4          0.7208   -2.0046    1.1317 C.3       1 <0>        -0.0066
      7 C5          0.6368   -0.4789    1.2132 C.3       1 <0>         0.0257
      8 C6         -0.5540   -4.0325    1.0060 C.3       1 <0>         0.0522
      9 C7          0.0350   -4.5562    2.2905 C.ar      1 <0>        -0.1661
     10 C8          1.4092   -4.7099    2.4053 C.ar      1 <0>        -0.1041
     11 C9          1.9640   -5.1880    3.5741 C.ar      1 <0>        -0.0893
     12 C10         1.1443   -5.5176    4.6435 C.ar      1 <0>         0.0651
     13 C11        -0.2486   -5.3636    4.5332 C.ar      1 <0>         0.0682
     14 C12        -0.7940   -4.8730    3.3424 C.ar      1 <0>        -0.0440
     15 N3         -0.7911   -5.7564    5.7123 N.2       1 <0>        -0.5391
     16 C13         0.1624   -6.1374    6.5314 C.2       1 <0>         0.4207
     17 N4          1.3798   -6.0080    5.9155 N.pl3     1 <0>        -0.5784
     18 H1          2.2448   -6.2206    6.2996 H         1 <0>         0.4419
     19 C14        -0.0452   -6.6282    7.9039 C.2       1 <0>        -0.3144
     20 C15        -1.3192   -6.5990    8.4749 C.2       1 <0>         0.3835
     21 C16        -1.4745   -7.1004    9.8466 C.ar      1 <0>        -0.1590
     22 C17        -2.7221   -7.0998   10.4766 C.ar      1 <0>        -0.0480
     23 C18        -2.8370   -7.5729   11.7536 C.ar      1 <0>        -0.1469
     24 C19        -1.7245   -8.0534   12.4298 C.ar      1 <0>        -0.0422
     25 C20        -0.4848   -8.0625   11.8271 C.ar      1 <0>        -0.1644
     26 C21        -0.3443   -7.5867   10.5273 C.ar      1 <0>         0.2191
     27 N5          0.8883   -7.5886    9.9056 N.am      1 <0>        -0.6354
     28 H2          1.6601   -7.9268   10.3862 H         1 <0>         0.4219
     29 C22         1.0441   -7.1377    8.6499 C.2       1 <0>         0.5817
     30 O1          2.1516   -7.1642    8.1421 O.2       1 <0>        -0.5628
     31 N6         -2.3967   -6.1146    7.7737 N.pl3     1 <0>        -0.8015
     32 H3          0.8946    1.9012    0.0460 H         1 <0>         0.0837
     33 H4         -0.6466    1.8551   -0.8433 H         1 <0>         0.0834
     34 H5         -0.6453    1.8392    0.9365 H         1 <0>         0.0386
     35 H6         -1.9959   -0.2539    0.8163 H         1 <0>         0.0594
     36 H7         -1.9114   -0.1656   -0.9599 H         1 <0>         0.1231
     37 H8         -2.3181   -2.4931   -0.1882 H         1 <0>         0.1358
     38 H9         -0.7511   -2.3507   -1.0202 H         1 <0>         0.1382
     39 H10         1.2308   -2.3882    2.0154 H         1 <0>         0.1377
     40 H11         1.2765   -2.2907    0.2387 H         1 <0>         0.1373
     41 H12         1.6428   -0.0605    1.2469 H         1 <0>         0.1221
     42 H13         0.0930   -0.1921    2.1133 H         1 <0>         0.0588
     43 H14        -1.5532   -4.4460    0.8693 H         1 <0>         0.1365
     44 H15         0.0790   -4.3276    0.1692 H         1 <0>         0.1375
     45 H16         2.0488   -4.4537    1.5736 H         1 <0>         0.1367
     46 H17         3.0344   -5.3058    3.6564 H         1 <0>         0.1351
     47 H18        -1.8624   -4.7470    3.2473 H         1 <0>         0.1353
     48 H19        -3.5919   -6.7267    9.9564 H         1 <0>         0.1335
     49 H20        -3.8010   -7.5724   12.2404 H         1 <0>         0.1383
     50 H21        -1.8309   -8.4236   13.4387 H         1 <0>         0.1410
     51 H22         0.3749   -8.4379   12.3622 H         1 <0>         0.1432
     52 H23        -2.2952   -5.8605    6.8431 H         1 <0>         0.4303
     53 H24        -3.2590   -6.0267    8.2092 H         1 <0>         0.4048
     54 H25        -1.1526   -2.2923    1.8872 H         1 <0>         0.4192
@<TRIPOS>BOND
     1    1    2 1
     2    1   32 1
     3    1   33 1
     4    1   34 1
     5    2    7 1
     6    2    3 1
     7    3    4 1
     8    3   35 1
     9    3   36 1
    10    4    5 1
    11    4   37 1
    12    4   38 1
    13    5    6 1
    14    5    8 1
    15    5   54 1
    16    6    7 1
    17    6   39 1
    18    6   40 1
    19    7   41 1
    20    7   42 1
    21    8    9 1
    22    8   43 1
    23    8   44 1
    24    9   14 ar
    25    9   10 ar
    26   10   11 ar
    27   10   45 1
    28   11   12 ar
    29   11   46 1
    30   12   17 1
    31   12   13 ar
    32   13   14 ar
    33   13   15 1
    34   14   47 1
    35   15   16 2
    36   16   17 1
    37   16   19 1
    38   17   18 1
    39   19   29 1
    40   19   20 2
    41   20   21 1
    42   20   31 1
    43   21   26 ar
    44   21   22 ar
    45   22   23 ar
    46   22   48 1
    47   23   24 ar
    48   23   49 1
    49   24   25 ar
    50   24   50 1
    51   25   26 ar
    52   25   51 1
    53   26   27 1
    54   27   28 1
    55   27   29 am
    56   29   30 2
    57   31   52 1
    58   31   53 1
@<TRIPOS>MOLECULE
CHEMBL213910
   73    78     0     0     0
SMALL
USER_CHARGES

@<TRIPOS>ATOM
      1 C1         -0.0586    1.5264    0.0620 C.3       1 <0>        -0.0459
      2 N1         -0.0439    0.0575    0.0475 N.4       1 <0>        -0.3882
      3 C2         -1.4238   -0.4458    0.0620 C.3       1 <0>        -0.0024
      4 C3         -1.4093   -1.9756    0.0279 C.3       1 <0>         0.0249
      5 N2         -0.6726   -2.4818    1.1946 N.3       1 <0>        -0.5352
      6 C4          0.7036   -1.9661    1.2069 C.3       1 <0>         0.0192
      7 C5          0.6717   -0.4364    1.2313 C.3       1 <0>        -0.0027
      8 C6         -0.6848   -3.9504    1.2282 C.3       1 <0>         0.0999
      9 C7         -0.1410   -4.4271    2.5504 C.ar      1 <0>        -0.0981
     10 C8          1.2151   -4.6595    2.6943 C.ar      1 <0>        -0.1037
     11 C9          1.7192   -5.0971    3.9059 C.ar      1 <0>        -0.0988
     12 C10         0.8703   -5.3033    4.9735 C.ar      1 <0>        -0.0602
     13 C11        -0.4952   -5.0721    4.8380 C.ar      1 <0>        -0.0126
     14 C12        -0.9963   -4.6247    3.6142 C.ar      1 <0>        -0.0588
     15 C13        -1.1782   -5.3675    6.1233 C.2       1 <0>         0.0894
     16 C14        -0.2268   -5.7863    7.0665 C.2       1 <0>        -0.2242
     17 C15        -0.8778   -6.0514    8.2363 C.2       1 <0>         0.1957
     18 N3         -2.2048   -5.8043    8.0299 N.pl3     1 <0>        -0.4527
     19 H1         -2.9128   -5.9050    8.6853 H         1 <0>         0.4488
     20 N4         -2.3631   -5.3797    6.7051 N.2       1 <0>        -0.2448
     21 C16        -0.2622   -6.5191    9.4909 C.2       1 <0>        -0.1207
     22 C17        -0.4824   -6.0892   10.7741 C.2       1 <0>        -0.1215
     23 C18         0.2185   -6.6834   11.8000 C.2       1 <0>        -0.1329
     24 C19         1.1028   -7.6728   11.5115 C.2       1 <0>        -0.1575
     25 S1          0.9588   -7.7984    9.7365 S.3       1 <0>         0.1001
     26 C20         1.9766   -8.4652   12.4493 C.3       1 <0>         0.2142
     27 N5          1.2563   -9.6604   12.8953 N.am      1 <0>        -0.6231
     28 C21         1.3638  -10.9073   12.1338 C.3       1 <0>         0.0716
     29 C22         0.4946   -9.6128   14.0062 C.2       1 <0>         0.7082
     30 O1          0.4053   -8.5779   14.6382 O.2       1 <0>        -0.5621
     31 N6         -0.1681  -10.7123   14.4165 N.am      1 <0>        -0.6834
     32 C23        -0.8810  -10.6909   15.6206 C.ar      1 <0>         0.1595
     33 C24        -0.9362  -11.8275   16.4169 C.ar      1 <0>        -0.1131
     34 C25        -1.6401  -11.8031   17.6046 C.ar      1 <0>        -0.0981
     35 C26        -2.2901  -10.6486   18.0013 C.ar      1 <0>        -0.0872
     36 C27        -2.2375   -9.5156   17.2107 C.ar      1 <0>        -0.1644
     37 C28        -1.5299   -9.5318   16.0244 C.ar      1 <0>        -0.0709
     38 C29        -2.9481   -8.2601   17.6462 C.3       1 <0>         0.5093
     39 F1         -3.5845   -8.4856   18.8715 F         1 <0>        -0.1755
     40 F2         -2.0192   -7.2235   17.7871 F         1 <0>        -0.1729
     41 F3         -3.9002   -7.9056   16.6845 F         1 <0>        -0.1771
     42 C30         1.1202   -5.7675    6.3876 C.3       1 <0>        -0.0050
     43 H2          0.9652    1.9001    0.0499 H         1 <0>         0.1241
     44 H3         -0.5896    1.8931   -0.8164 H         1 <0>         0.1241
     45 H4         -0.5623    1.8758    0.9633 H         1 <0>         0.1229
     46 H5         -1.9244   -0.1073    0.9691 H         1 <0>         0.1376
     47 H6         -1.9575   -0.0680   -0.8101 H         1 <0>         0.1359
     48 H7         -2.4328   -2.3497    0.0537 H         1 <0>         0.1244
     49 H8         -0.9208   -2.3144   -0.8857 H         1 <0>         0.0615
     50 H9          1.2216   -2.3333    2.0929 H         1 <0>         0.1274
     51 H10         1.2269   -2.3048    0.3127 H         1 <0>         0.0612
     52 H11         1.6915   -0.0516    1.2261 H         1 <0>         0.1355
     53 H12         0.1603   -0.0980    2.1324 H         1 <0>         0.1373
     54 H13        -1.7071   -4.3082    1.1057 H         1 <0>         0.0980
     55 H14        -0.0650   -4.3375    0.4195 H         1 <0>         0.0586
     56 H15         1.8812   -4.4994    1.8594 H         1 <0>         0.1256
     57 H16         2.7783   -5.2779    4.0159 H         1 <0>         0.1335
     58 H17        -2.0538   -4.4380    3.4992 H         1 <0>         0.1284
     59 H18        -1.1913   -5.2999   10.9764 H         1 <0>         0.1361
     60 H19         0.0670   -6.3662   12.8212 H         1 <0>         0.1451
     61 H20         2.8887   -8.7627   11.9319 H         1 <0>         0.1011
     62 H21         2.2325   -7.8517   13.3131 H         1 <0>         0.1160
     63 H22         2.2012  -11.4933   12.5126 H         1 <0>         0.0680
     64 H23         0.4421  -11.4792   12.2411 H         1 <0>         0.0690
     65 H24         1.5282  -10.6771   11.0811 H         1 <0>         0.0792
     66 H25        -0.1509  -11.5184   13.8773 H         1 <0>         0.4105
     67 H26        -0.4294  -12.7296   16.1073 H         1 <0>         0.1361
     68 H27        -1.6834  -12.6866   18.2243 H         1 <0>         0.1420
     69 H28        -2.8403  -10.6322   18.9306 H         1 <0>         0.1415
     70 H29        -1.4854   -8.6451   15.4094 H         1 <0>         0.1509
     71 H30         1.5518   -6.7684    6.3829 H         1 <0>         0.0992
     72 H31         1.7876   -5.0731    6.8979 H         1 <0>         0.0998
     73 H32         0.4228   -0.2657   -0.7866 H         1 <0>         0.4221
@<TRIPOS>BOND
     1    1    2 1
     2    1   43 1
     3    1   44 1
     4    1   45 1
     5    2    7 1
     6    2    3 1
     7    2   73 1
     8    3    4 1
     9    3   46 1
    10    3   47 1
    11    4    5 1
    12    4   48 1
    13    4   49 1
    14    5    6 1
    15    5    8 1
    16    6    7 1
    17    6   50 1
    18    6   51 1
    19    7   52 1
    20    7   53 1
    21    8    9 1
    22    8   54 1
    23    8   55 1
    24    9   14 ar
    25    9   10 ar
    26   10   11 ar
    27   10   56 1
    28   11   12 ar
    29   11   57 1
    30   12   42 1
    31   12   13 ar
    32   13   14 ar
    33   13   15 1
    34   14   58 1
    35   15   20 2
    36   15   16 1
    37   16   17 2
    38   16   42 1
    39   17   18 1
    40   17   21 1
    41   18   19 1
    42   18   20 1
    43   21   25 1
    44   21   22 2
    45   22   23 1
    46   22   59 1
    47   23   24 2
    48   23   60 1
    49   24   25 1
    50   24   26 1
    51   26   27 1
    52   26   61 1
    53   26   62 1
    54   27   28 1
    55   27   29 am
    56   28   63 1
    57   28   64 1
    58   28   65 1
    59   29   30 2
    60   29   31 am
    61   31   32 1
    62   31   66 1
    63   32   37 ar
    64   32   33 ar
    65   33   34 ar
    66   33   67 1
    67   34   35 ar
    68   34   68 1
    69   35   36 ar
    70   35   69 1
    71   36   37 ar
    72   36   38 1
    73   37   70 1
    74   38   39 1
    75   38   40 1
    76   38   41 1
    77   42   71 1
    78   42   72 1
@<TRIPOS>MOLECULE
CHEMBL213910__1
   73    78     0     0     0
SMALL
USER_CHARGES

@<TRIPOS>ATOM
      1 C1         -0.0758    1.5156    0.0560 C.3       1 <0>        -0.0461
      2 N1         -0.0602    0.0468    0.0425 N.4       1 <0>        -0.3882
      3 C2         -1.4397   -0.4574    0.0585 C.3       1 <0>        -0.0023
      4 C3         -1.4242   -1.9873    0.0256 C.3       1 <0>         0.0248
      5 N2         -0.6862   -2.4921    1.1920 N.3       1 <0>        -0.5356
      6 C4          0.6897   -1.9755    1.2028 C.3       1 <0>         0.0190
      7 C5          0.6568   -0.4458    1.2261 C.3       1 <0>        -0.0026
      8 C6         -0.6974   -3.9607    1.2268 C.3       1 <0>         0.0991
      9 C7         -0.1521   -4.4360    2.5488 C.ar      1 <0>        -0.0950
     10 C8          1.2046   -4.6672    2.6909 C.ar      1 <0>        -0.1039
     11 C9          1.7116   -5.1039    3.9026 C.ar      1 <0>        -0.0948
     12 C10         0.8651   -5.3090    4.9694 C.ar      1 <0>        -0.0587
     13 C11        -0.5037   -5.0792    4.8376 C.ar      1 <0>        -0.0308
     14 C12        -1.0071   -4.6331    3.6128 C.ar      1 <0>        -0.0684
     15 C13        -1.1746   -5.3753    6.1228 C.2       1 <0>         0.0970
     16 C14        -0.2589   -5.7814    7.0448 C.2       1 <0>        -0.2160
     17 C15        -0.9387   -6.0502    8.2456 C.2       1 <0>         0.1863
     18 N3         -2.2212   -5.8139    8.0534 N.2       1 <0>        -0.2420
     19 H1         -3.2431   -5.1478    6.3189 H         1 <0>         0.4432
     20 N4         -2.3991   -5.3896    6.7312 N.pl3     1 <0>        -0.4509
     21 C16        -0.3216   -6.5174    9.5064 C.2       1 <0>        -0.0930
     22 C17        -0.6679   -6.2222   10.7971 C.2       1 <0>        -0.1173
     23 C18         0.0613   -6.7829   11.8236 C.2       1 <0>        -0.1298
     24 C19         1.0970   -7.6077   11.5251 C.2       1 <0>        -0.1617
     25 S1          1.0637   -7.6191    9.7403 S.3       1 <0>         0.0833
     26 C20         2.0311   -8.3322   12.4599 C.3       1 <0>         0.2158
     27 N5          1.4764   -9.6497   12.7804 N.am      1 <0>        -0.6228
     28 C21         1.8082  -10.8069   11.9456 C.3       1 <0>         0.0722
     29 C22         0.6609   -9.7971   13.8432 C.2       1 <0>         0.7082
     30 O1          0.3855   -8.8366   14.5360 O.2       1 <0>        -0.5618
     31 N6          0.1506  -11.0092   14.1380 N.am      1 <0>        -0.6838
     32 C23        -0.6176  -11.1824   15.2949 C.ar      1 <0>         0.1603
     33 C24        -0.5421  -12.3713   16.0089 C.ar      1 <0>        -0.1137
     34 C25        -1.3010  -12.5390   17.1503 C.ar      1 <0>        -0.0985
     35 C26        -2.1361  -11.5247   17.5823 C.ar      1 <0>        -0.0879
     36 C27        -2.2140  -10.3402   16.8735 C.ar      1 <0>        -0.1642
     37 C28        -1.4527  -10.1639   15.7344 C.ar      1 <0>        -0.0706
     38 C29        -3.1260   -9.2380   17.3474 C.3       1 <0>         0.5091
     39 F1         -3.7827   -9.6452   18.5136 F         1 <0>        -0.1760
     40 F2         -2.3714   -8.0904   17.6135 F         1 <0>        -0.1729
     41 F3         -4.0705   -8.9553   16.3548 F         1 <0>        -0.1766
     42 C30         1.0996   -5.7706    6.3868 C.3       1 <0>        -0.0142
     43 H2          0.9478    1.8900    0.0428 H         1 <0>         0.1245
     44 H3         -0.6078    1.8814   -0.8223 H         1 <0>         0.1245
     45 H4         -0.5790    1.8654    0.9574 H         1 <0>         0.1230
     46 H5         -1.9398   -0.1186    0.9658 H         1 <0>         0.1373
     47 H6         -1.9743   -0.0806   -0.8134 H         1 <0>         0.1363
     48 H7         -2.4474   -2.3620    0.0525 H         1 <0>         0.1241
     49 H8         -0.9362   -2.3264   -0.8882 H         1 <0>         0.0621
     50 H9          1.2087   -2.3417    2.0887 H         1 <0>         0.1273
     51 H10         1.2125   -2.3145    0.3085 H         1 <0>         0.0618
     52 H11         1.6763   -0.0603    1.2198 H         1 <0>         0.1361
     53 H12         0.1459   -0.1070    2.1274 H         1 <0>         0.1371
     54 H13        -1.7196   -4.3192    1.1053 H         1 <0>         0.0974
     55 H14        -0.0780   -4.3480    0.4179 H         1 <0>         0.0593
     56 H15         1.8692   -4.5070    1.8548 H         1 <0>         0.1266
     57 H16         2.7709   -5.2841    4.0114 H         1 <0>         0.1354
     58 H17        -2.0647   -4.4471    3.4983 H         1 <0>         0.1247
     59 H18        -1.4965   -5.5622   11.0074 H         1 <0>         0.1382
     60 H19        -0.1879   -6.5683   12.8523 H         1 <0>         0.1438
     61 H20         3.0025   -8.4537   11.9807 H         1 <0>         0.0999
     62 H21         2.1479   -7.7543   13.3767 H         1 <0>         0.1150
     63 H22         2.7037  -11.2912   12.3352 H         1 <0>         0.0670
     64 H23         0.9785  -11.5137   11.9578 H         1 <0>         0.0685
     65 H24         1.9894  -10.4770   10.9226 H         1 <0>         0.0794
     66 H25         0.3158  -11.7615   13.5484 H         1 <0>         0.4103
     67 H26         0.1093  -13.1640   15.6716 H         1 <0>         0.1358
     68 H27        -1.2427  -13.4632   17.7059 H         1 <0>         0.1415
     69 H28        -2.7290  -11.6584   18.4751 H         1 <0>         0.1411
     70 H29        -1.5105   -9.2367   15.1837 H         1 <0>         0.1515
     71 H30         1.5272   -6.7732    6.3901 H         1 <0>         0.1046
     72 H31         1.7625   -5.0766    6.9037 H         1 <0>         0.1055
     73 H32         0.4061   -0.2768   -0.7917 H         1 <0>         0.4224
@<TRIPOS>BOND
     1    1    2 1
     2    1   43 1
     3    1   44 1
     4    1   45 1
     5    2    7 1
     6    2    3 1
     7    2   73 1
     8    3    4 1
     9    3   46 1
    10    3   47 1
    11    4    5 1
    12    4   48 1
    13    4   49 1
    14    5    6 1
    15    5    8 1
    16    6    7 1
    17    6   50 1
    18    6   51 1
    19    7   52 1
    20    7   53 1
    21    8    9 1
    22    8   54 1
    23    8   55 1
    24    9   14 ar
    25    9   10 ar
    26   10   11 ar
    27   10   56 1
    28   11   12 ar
    29   11   57 1
    30   12   42 1
    31   12   13 ar
    32   13   14 ar
    33   13   15 1
    34   14   58 1
    35   15   16 2
    36   15   20 1
    37   16   17 1
    38   16   42 1
    39   17   18 2
    40   17   21 1
    41   18   20 1
    42   19   20 1
    43   21   25 1
    44   21   22 2
    45   22   23 1
    46   22   59 1
    47   23   24 2
    48   23   60 1
    49   24   25 1
    50   24   26 1
    51   26   27 1
    52   26   61 1
    53   26   62 1
    54   27   28 1
    55   27   29 am
    56   28   63 1
    57   28   64 1
    58   28   65 1
    59   29   30 2
    60   29   31 am
    61   31   32 1
    62   31   66 1
    63   32   37 ar
    64   32   33 ar
    65   33   34 ar
    66   33   67 1
    67   34   35 ar
    68   34   68 1
    69   35   36 ar
    70   35   69 1
    71   36   37 ar
    72   36   38 1
    73   37   70 1
    74   38   39 1
    75   38   40 1
    76   38   41 1
    77   42   71 1
    78   42   72 1
@<TRIPOS>MOLECULE
CHEMBL272823
   55    59     0     0     0
SMALL
USER_CHARGES

@<TRIPOS>ATOM
      1 C1         -0.6511    0.1258    1.9191 C.3       1 <0>         0.0216
      2 O1         -0.2551   -0.5303    0.7130 O.3       1 <0>        -0.3000
      3 C2         -1.1268   -0.4845   -0.3296 C.ar      1 <0>         0.1100
      4 C3         -2.3142    0.1751   -0.1882 C.ar      1 <0>        -0.1361
      5 C4         -3.2130    0.2230   -1.2615 C.ar      1 <0>        -0.1543
      6 C5         -2.8856   -0.4122   -2.4859 C.ar      1 <0>         0.1972
      7 C6         -1.6623   -1.0828   -2.6079 C.ar      1 <0>        -0.1866
      8 C7         -0.7939   -1.1101   -1.5395 C.ar      1 <0>         0.1688
      9 O2          0.3957   -1.7553   -1.6571 O.3       1 <0>        -0.2955
     10 C8          0.6773   -2.3730   -2.9145 C.3       1 <0>         0.0193
     11 N1         -3.7638   -0.3510   -3.4984 N.ar      1 <0>        -0.5244
     12 C9         -4.9014    0.2852   -3.3531 C.ar      1 <0>         0.3386
     13 N2         -5.2478    0.8924   -2.2286 N.ar      1 <0>        -0.5745
     14 C10        -4.4540    0.8921   -1.1682 C.ar      1 <0>         0.3996
     15 O3         -4.8220    1.5163   -0.0255 O.3       1 <0>        -0.2387
     16 C11        -5.9794    2.2285   -0.0317 C.ar      1 <0>         0.0971
     17 C12        -7.2041    1.5555    0.0058 C.ar      1 <0>        -0.1021
     18 C13        -8.3794    2.2427    0.0005 C.ar      1 <0>        -0.1005
     19 C14        -8.3662    3.6439   -0.0424 C.ar      1 <0>        -0.0044
     20 C15        -7.1277    4.3301   -0.0800 C.ar      1 <0>        -0.0493
     21 C16        -5.9315    3.5933   -0.0688 C.ar      1 <0>        -0.1004
     22 C17        -7.1149    5.7353   -0.1226 C.ar      1 <0>        -0.0629
     23 C18        -8.2872    6.4302   -0.1272 C.ar      1 <0>        -0.1285
     24 C19        -9.5115    5.7752   -0.0903 C.ar      1 <0>        -0.0627
     25 C20        -9.5716    4.3898   -0.0486 C.ar      1 <0>        -0.1292
     26 C21       -10.8745    3.7009   -0.0105 C.2       1 <0>         0.5671
     27 O4        -10.9204    2.4940    0.1314 O.2       1 <0>        -0.5083
     28 N3        -12.0149    4.4088   -0.1330 N.am      1 <0>        -0.6676
     29 C22       -13.2461    3.7474   -0.1889 C.ar      1 <0>         0.1472
     30 C23       -14.2662    4.2426   -0.9909 C.ar      1 <0>        -0.1306
     31 C24       -15.4807    3.5874   -1.0446 C.ar      1 <0>        -0.0908
     32 C25       -15.6819    2.4385   -0.2998 C.ar      1 <0>        -0.0479
     33 C26       -14.6674    1.9431    0.5005 C.ar      1 <0>        -0.0908
     34 C27       -13.4489    2.5910    0.5531 C.ar      1 <0>        -0.1070
     35 Cl1       -17.2100    1.6176   -0.3691 Cl        1 <0>        -0.0677
     36 H1          0.1327    0.0133    2.6682 H         1 <0>         0.1066
     37 H2         -0.8140    1.1850    1.7199 H         1 <0>         0.0591
     38 H3         -1.5741   -0.3205    2.2893 H         1 <0>         0.0595
     39 H4         -2.5593    0.6572    0.7466 H         1 <0>         0.1533
     40 H5         -1.3998   -1.5711   -3.5348 H         1 <0>         0.1586
     41 H6         -0.0847   -3.1221   -3.1301 H         1 <0>         0.0628
     42 H7          0.6754   -1.6166   -3.6994 H         1 <0>         0.0626
     43 H8          1.6558   -2.8514   -2.8734 H         1 <0>         0.1081
     44 H9         -5.5860    0.3155   -4.1879 H         1 <0>         0.2010
     45 H10        -7.2182    0.4761    0.0390 H         1 <0>         0.1299
     46 H11        -9.3186    1.7103    0.0291 H         1 <0>         0.1757
     47 H12        -4.9796    4.1029   -0.0931 H         1 <0>         0.1385
     48 H13        -6.1742    6.2650   -0.1514 H         1 <0>         0.1364
     49 H14        -8.2639    7.5095   -0.1597 H         1 <0>         0.1363
     50 H15       -10.4258    6.3500   -0.0945 H         1 <0>         0.1299
     51 H16       -11.9817    5.3770   -0.1824 H         1 <0>         0.4127
     52 H17       -14.1099    5.1396   -1.5718 H         1 <0>         0.1363
     53 H18       -16.2742    3.9721   -1.6681 H         1 <0>         0.1390
     54 H19       -14.8273    1.0465    1.0810 H         1 <0>         0.1383
     55 H20       -12.6560    2.2014    1.1744 H         1 <0>         0.1495
@<TRIPOS>BOND
     1    1    2 1
     2    1   36 1
     3    1   37 1
     4    1   38 1
     5    2    3 1
     6    3    8 ar
     7    3    4 ar
     8    4    5 ar
     9    4   39 1
    10    5   14 ar
    11    5    6 ar
    12    6    7 ar
    13    6   11 ar
    14    7    8 ar
    15    7   40 1
    16    8    9 1
    17    9   10 1
    18   10   41 1
    19   10   42 1
    20   10   43 1
    21   11   12 ar
    22   12   13 ar
    23   12   44 1
    24   13   14 ar
    25   14   15 1
    26   15   16 1
    27   16   21 ar
    28   16   17 ar
    29   17   18 ar
    30   17   45 1
    31   18   19 ar
    32   18   46 1
    33   19   25 ar
    34   19   20 ar
    35   20   21 ar
    36   20   22 ar
    37   21   47 1
    38   22   23 ar
    39   22   48 1
    40   23   24 ar
    41   23   49 1
    42   24   25 ar
    43   24   50 1
    44   25   26 1
    45   26   27 2
    46   26   28 am
    47   28   29 1
    48   28   51 1
    49   29   34 ar
    50   29   30 ar
    51   30   31 ar
    52   30   52 1
    53   31   32 ar
    54   31   53 1
    55   32   33 ar
    56   32   35 1
    57   33   34 ar
    58   33   54 1
    59   34   55 1
@<TRIPOS>MOLECULE
CHEMBL193306
   52    55     0     0     0
SMALL
USER_CHARGES

@<TRIPOS>ATOM
      1 C1         -0.5876    1.3932    0.7537 C.3       1 <0>        -0.0713
      2 C2         -0.4122   -0.0979    0.6239 C.2       1 <0>        -0.0424
      3 C3         -1.3451   -1.0343    0.8688 C.2       1 <0>        -0.0404
      4 N1         -0.7932   -2.2360    0.6349 N.2       1 <0>        -0.4569
      5 C4          0.4504   -2.0595    0.2542 C.2       1 <0>         0.2674
      6 O1          0.7081   -0.7403    0.2350 O.3       1 <0>        -0.1961
      7 C5          1.4053   -3.1307   -0.0993 C.2       1 <0>        -0.0880
      8 C6          2.7196   -2.9596   -0.4955 C.2       1 <0>         0.1113
      9 N2          3.2614   -4.1668   -0.7285 N.pl3     1 <0>        -0.2311
     10 C7          2.3095   -5.1401   -0.4877 C.2       1 <0>        -0.1118
     11 C8          1.1477   -4.5151   -0.0892 C.2       1 <0>        -0.0164
     12 C9         -0.1502   -5.1845    0.2829 C.3       1 <0>        -0.0185
     13 C10        -0.5201   -4.8160    1.7210 C.3       1 <0>        -0.1596
     14 C11        -1.2561   -4.7150   -0.6645 C.3       1 <0>        -0.1580
     15 C12         2.6697   -6.4973   -0.6724 C.2       1 <0>         0.5383
     16 N3          3.8974   -6.7912   -1.0669 N.2       1 <0>        -0.6243
     17 C13         4.8034   -5.8420   -1.2948 C.2       1 <0>         0.3324
     18 N4          4.5379   -4.5738   -1.1442 N.2       1 <0>        -0.3422
     19 N5          1.7507   -7.5013   -0.4430 N.pl3     1 <0>        -0.6156
     20 C14         2.1503   -8.8425   -0.4982 C.ar      1 <0>         0.1008
     21 C15         3.4866   -9.1723   -0.3542 C.ar      1 <0>        -0.0428
     22 C16         3.8817  -10.5108   -0.4098 C.ar      1 <0>        -0.1539
     23 C17         2.9236  -11.5103   -0.6108 C.ar      1 <0>         0.1841
     24 C18         1.5915  -11.1704   -0.7534 C.ar      1 <0>        -0.1741
     25 C19         1.2016   -9.8440   -0.6923 C.ar      1 <0>         0.1342
     26 F1         -0.1027   -9.5187   -0.8270 F         1 <0>        -0.1191
     27 F2          3.3002  -12.8066   -0.6658 F         1 <0>        -0.0997
     28 C20         5.3051  -10.8696   -0.2575 C.2       1 <0>         0.5755
     29 O2          5.6467  -12.0355   -0.3062 O.2       1 <0>        -0.4979
     30 N6          6.2262   -9.9049   -0.0644 N.am      1 <0>        -0.5939
     31 O3          7.5920  -10.2491    0.0817 O.3       1 <0>        -0.1371
     32 C21         8.4559   -9.1283    0.2799 C.3       1 <0>        -0.0032
     33 H1          0.3421    1.8934    0.4825 H         1 <0>         0.0785
     34 H2         -1.3856    1.7243    0.0891 H         1 <0>         0.0909
     35 H3         -0.8463    1.6404    1.7833 H         1 <0>         0.0910
     36 H4         -2.3582   -0.8524    1.1958 H         1 <0>         0.1875
     37 H5          3.2265   -2.0118   -0.6007 H         1 <0>         0.1933
     38 H6         -0.0375   -6.2657    0.2024 H         1 <0>         0.0549
     39 H7         -0.6328   -3.7348    1.8015 H         1 <0>         0.0991
     40 H8         -1.4589   -5.3001    1.9902 H         1 <0>         0.0611
     41 H9          0.2678   -5.1504    2.3959 H         1 <0>         0.0453
     42 H10        -0.9926   -4.9776   -1.6890 H         1 <0>         0.0459
     43 H11        -2.1948   -5.1992   -0.3953 H         1 <0>         0.0619
     44 H12        -1.3688   -3.6339   -0.5840 H         1 <0>         0.0960
     45 H13         5.7928   -6.1326   -1.6157 H         1 <0>         0.2244
     46 H14         0.8280   -7.2780   -0.2435 H         1 <0>         0.4308
     47 H15         4.2220   -8.3966   -0.1996 H         1 <0>         0.1819
     48 H16         0.8524  -11.9424   -0.9089 H         1 <0>         0.1679
     49 H17         5.9537   -8.9748   -0.0255 H         1 <0>         0.4070
     50 H18         8.3831   -8.4576   -0.5763 H         1 <0>         0.0588
     51 H19         8.1597   -8.5966    1.1841 H         1 <0>         0.0574
     52 H20         9.4839   -9.4756    0.3829 H         1 <0>         0.1166
@<TRIPOS>BOND
     1    1    2 1
     2    1   33 1
     3    1   34 1
     4    1   35 1
     5    2    6 1
     6    2    3 2
     7    3    4 1
     8    3   36 1
     9    4    5 2
    10    5    6 1
    11    5    7 1
    12    7   11 1
    13    7    8 2
    14    8    9 1
    15    8   37 1
    16    9   18 1
    17    9   10 1
    18   10   11 2
    19   10   15 1
    20   11   12 1
    21   12   13 1
    22   12   14 1
    23   12   38 1
    24   13   39 1
    25   13   40 1
    26   13   41 1
    27   14   42 1
    28   14   43 1
    29   14   44 1
    30   15   16 2
    31   15   19 1
    32   16   17 1
    33   17   18 2
    34   17   45 1
    35   19   20 1
    36   19   46 1
    37   20   25 ar
    38   20   21 ar
    39   21   22 ar
    40   21   47 1
    41   22   23 ar
    42   22   28 1
    43   23   24 ar
    44   23   27 1
    45   24   25 ar
    46   24   48 1
    47   25   26 1
    48   28   29 2
    49   28   30 am
    50   30   31 1
    51   30   49 1
    52   31   32 1
    53   32   50 1
    54   32   51 1
    55   32   52 1
@<TRIPOS>MOLECULE
CHEMBL256556
   38    40     0     0     0
SMALL
USER_CHARGES

@<TRIPOS>ATOM
      1 C1         -0.0171    1.3799   -0.0139 C.ar      1 <0>        -0.1895
      2 C2          1.1777    2.0780   -0.0141 C.ar      1 <0>        -0.0198
      3 C3          2.3731    1.3503   -0.0196 C.ar      1 <0>        -0.1851
      4 C4          2.3102   -0.0547   -0.0246 C.ar      1 <0>         0.1578
      5 N1          1.1380   -0.6720   -0.0246 N.ar      1 <0>        -0.4953
      6 C5          0.0015   -0.0035   -0.0190 C.ar      1 <0>         0.1518
      7 S1          3.7980   -0.9987   -0.0316 S.3       1 <0>         0.0597
      8 C6          3.2255   -2.7200   -0.0366 C.3       1 <0>        -0.1111
      9 C7          4.4152   -3.6451   -0.0428 C.ar      1 <0>        -0.0287
     10 C8          4.9762   -4.0718   -1.2368 C.ar      1 <0>        -0.1584
     11 C9          6.0668   -4.9201   -1.2033 C.ar      1 <0>         0.1019
     12 N2          6.5726   -5.3232   -0.0541 N.ar      1 <0>        -0.4827
     13 C10         6.0650   -4.9378    1.1003 C.ar      1 <0>         0.1021
     14 C11         4.9783   -4.0851    1.1453 C.ar      1 <0>        -0.1583
     15 C12         3.6735    2.0434   -0.0206 C.2       1 <0>         0.5615
     16 O1          4.7055    1.3999   -0.0254 O.2       1 <0>        -0.4850
     17 N3          3.7193    3.3904   -0.0162 N.am      1 <0>        -0.6674
     18 C13         4.9502    4.0481    0.0807 C.ar      1 <0>         0.1478
     19 C14         5.0484    5.2399    0.7872 C.ar      1 <0>        -0.1310
     20 C15         6.2648    5.8869    0.8817 C.ar      1 <0>        -0.0909
     21 C16         7.3853    5.3488    0.2733 C.ar      1 <0>        -0.0477
     22 C17         7.2902    4.1615   -0.4312 C.ar      1 <0>        -0.0901
     23 C18         6.0773    3.5076   -0.5244 C.ar      1 <0>        -0.1064
     24 Cl1         8.9127    6.1650    0.3936 Cl        1 <0>        -0.0674
     25 H1         -0.9573    1.9112   -0.0052 H         1 <0>         0.1477
     26 H2          1.1874    3.1580   -0.0105 H         1 <0>         0.1428
     27 H3         -0.9323   -0.5460   -0.0188 H         1 <0>         0.1678
     28 H4          2.6254   -2.9059    0.8541 H         1 <0>         0.1033
     29 H5          2.6212   -2.8994   -0.9259 H         1 <0>         0.1034
     30 H6          4.5660   -3.7456   -2.1811 H         1 <0>         0.1372
     31 H7          6.5096   -5.2570   -2.1289 H         1 <0>         0.1590
     32 H8          6.5062   -5.2892    2.0213 H         1 <0>         0.1589
     33 H9          4.5702   -3.7690    2.0939 H         1 <0>         0.1372
     34 H10         2.8988    3.9037   -0.0802 H         1 <0>         0.4113
     35 H11         4.1742    5.6604    1.2618 H         1 <0>         0.1358
     36 H12         6.3416    6.8138    1.4306 H         1 <0>         0.1389
     37 H13         8.1662    3.7437   -0.9051 H         1 <0>         0.1385
     38 H14         6.0046    2.5787   -1.0706 H         1 <0>         0.1500
@<TRIPOS>BOND
     1    1    6 ar
     2    1    2 ar
     3    1   25 1
     4    2    3 ar
     5    2   26 1
     6    3    4 ar
     7    3   15 1
     8    4    5 ar
     9    4    7 1
    10    5    6 ar
    11    6   27 1
    12    7    8 1
    13    8    9 1
    14    8   28 1
    15    8   29 1
    16    9   14 ar
    17    9   10 ar
    18   10   11 ar
    19   10   30 1
    20   11   12 ar
    21   11   31 1
    22   12   13 ar
    23   13   14 ar
    24   13   32 1
    25   14   33 1
    26   15   16 2
    27   15   17 am
    28   17   18 1
    29   17   34 1
    30   18   23 ar
    31   18   19 ar
    32   19   20 ar
    33   19   35 1
    34   20   21 ar
    35   20   36 1
    36   21   22 ar
    37   21   24 1
    38   22   23 ar
    39   22   37 1
    40   23   38 1
@<TRIPOS>MOLECULE
CHEMBL26931
   55    58     0     0     0
SMALL
USER_CHARGES

@<TRIPOS>ATOM
      1 C1          1.3817    3.4088    0.4121 C.3       1 <0>        -0.0605
      2 N1          1.5257    1.9724    0.1404 N.4       1 <0>        -0.3782
      3 C2          0.2093    1.3992   -0.1647 C.3       1 <0>        -0.0106
      4 C3         -0.7494    1.6664    0.9976 C.3       1 <0>        -0.1481
      5 C4         -0.1925    1.0213    2.2700 C.3       1 <0>        -0.1334
      6 C5          1.2113    1.5718    2.5373 C.3       1 <0>        -0.1100
      7 C6          2.0974    1.3081    1.3179 C.3       1 <0>        -0.0042
      8 C7          1.8081    0.8763    3.7624 C.3       1 <0>         0.0589
      9 O1          1.0432    1.2136    4.9214 O.3       1 <0>        -0.2915
     10 C8          1.4429    0.6746    6.1025 C.ar      1 <0>         0.1614
     11 C9          2.5454   -0.1505    6.1365 C.ar      1 <0>        -0.1787
     12 C10         2.9551   -0.7046    7.3552 C.ar      1 <0>         0.2015
     13 C11         2.2284   -0.4075    8.5349 C.ar      1 <0>        -0.1777
     14 C12         1.1114    0.4340    8.4733 C.ar      1 <0>        -0.1415
     15 C13         0.7324    0.9686    7.2746 C.ar      1 <0>         0.1106
     16 O2         -0.3492    1.7906    7.2168 O.3       1 <0>        -0.3026
     17 C14        -1.0316    2.0522    8.4448 C.3       1 <0>         0.0197
     18 C15         2.6669   -0.9821    9.7517 C.ar      1 <0>         0.4672
     19 N2          3.7349   -1.7687    9.7253 N.ar      1 <0>        -0.5766
     20 C16         4.3826   -2.0180    8.5983 C.ar      1 <0>         0.3486
     21 N3          4.0224   -1.5140    7.4421 N.ar      1 <0>        -0.5421
     22 N4          2.0014   -0.7303   10.9344 N.pl3     1 <0>        -0.6293
     23 C17         2.5268   -1.1950   12.1455 C.ar      1 <0>         0.1369
     24 C18         3.8653   -1.5534   12.2313 C.ar      1 <0>        -0.1037
     25 C19         4.3814   -2.0118   13.4278 C.ar      1 <0>        -0.0734
     26 C20         3.5665   -2.1143   14.5413 C.ar      1 <0>        -0.0854
     27 C21         2.2319   -1.7583   14.4606 C.ar      1 <0>        -0.1007
     28 C22         1.7104   -1.2933   13.2672 C.ar      1 <0>         0.0691
     29 F1          0.4087   -0.9403   13.1896 F         1 <0>        -0.1329
     30 Br1         4.2781   -2.7430   16.1766 Br        1 <0>        -0.0291
     31 H1          2.3597    3.8368    0.6323 H         1 <0>         0.1251
     32 H2          0.9573    3.9031   -0.4618 H         1 <0>         0.1262
     33 H3          0.7213    3.5524    1.2673 H         1 <0>         0.1274
     34 H4         -0.1842    1.8570   -1.0723 H         1 <0>         0.1325
     35 H5          0.3075    0.3240   -0.3144 H         1 <0>         0.1307
     36 H6         -0.8485    2.7415    1.1479 H         1 <0>         0.0904
     37 H7         -1.7257    1.2386    0.7699 H         1 <0>         0.1140
     38 H8         -0.8428    1.2566    3.1125 H         1 <0>         0.1033
     39 H9         -0.1413   -0.0595    2.1383 H         1 <0>         0.0840
     40 H10         1.1529    2.6449    2.7196 H         1 <0>         0.1093
     41 H11         2.1553    0.2349    1.1367 H         1 <0>         0.1349
     42 H12         3.0977    1.6986    1.5049 H         1 <0>         0.1355
     43 H13         1.7859   -0.2034    3.6141 H         1 <0>         0.0792
     44 H14         2.8389    1.2031    3.8996 H         1 <0>         0.0790
     45 H15         3.0896   -0.3687    5.2295 H         1 <0>         0.1536
     46 H16         0.5544    0.6629    9.3698 H         1 <0>         0.1420
     47 H17        -1.8725    2.7201    8.2581 H         1 <0>         0.1098
     48 H18        -1.3981    1.1149    8.8636 H         1 <0>         0.0602
     49 H19        -0.3447    2.5210    9.1495 H         1 <0>         0.0601
     50 H20         5.2465   -2.6652    8.6323 H         1 <0>         0.2038
     51 H21         1.1696   -0.2314   10.9262 H         1 <0>         0.4242
     52 H22         4.5026   -1.4743   11.3629 H         1 <0>         0.1817
     53 H23         5.4226   -2.2909   13.4942 H         1 <0>         0.1463
     54 H24         1.5981   -1.8397   15.3313 H         1 <0>         0.1517
     55 H25         2.1391    1.8404   -0.6498 H         1 <0>         0.4312
@<TRIPOS>BOND
     1    1    2 1
     2    1   31 1
     3    1   32 1
     4    1   33 1
     5    2    7 1
     6    2    3 1
     7    2   55 1
     8    3    4 1
     9    3   34 1
    10    3   35 1
    11    4    5 1
    12    4   36 1
    13    4   37 1
    14    5    6 1
    15    5   38 1
    16    5   39 1
    17    6    7 1
    18    6    8 1
    19    6   40 1
    20    7   41 1
    21    7   42 1
    22    8    9 1
    23    8   43 1
    24    8   44 1
    25    9   10 1
    26   10   15 ar
    27   10   11 ar
    28   11   12 ar
    29   11   45 1
    30   12   21 ar
    31   12   13 ar
    32   13   14 ar
    33   13   18 ar
    34   14   15 ar
    35   14   46 1
    36   15   16 1
    37   16   17 1
    38   17   47 1
    39   17   48 1
    40   17   49 1
    41   18   19 ar
    42   18   22 1
    43   19   20 ar
    44   20   21 ar
    45   20   50 1
    46   22   23 1
    47   22   51 1
    48   23   28 ar
    49   23   24 ar
    50   24   25 ar
    51   24   52 1
    52   25   26 ar
    53   25   53 1
    54   26   27 ar
    55   26   30 1
    56   27   28 ar
    57   27   54 1
    58   28   29 1
@<TRIPOS>MOLECULE
CHEMBL26931__1
   55    58     0     0     0
SMALL
USER_CHARGES

@<TRIPOS>ATOM
      1 C1         -2.4324    0.7558    1.3401 C.3       1 <0>        -0.0472
      2 N1         -2.1017   -0.6662    1.1768 N.4       1 <0>        -0.3821
      3 C2         -3.3347   -1.4615    1.2175 C.3       1 <0>        -0.0097
      4 C3         -3.0045   -2.9345    0.9669 C.3       1 <0>        -0.1460
      5 C4         -2.0412   -3.4275    2.0505 C.3       1 <0>        -0.1338
      6 C5         -0.7905   -2.5438    2.0482 C.3       1 <0>        -0.1082
      7 C6         -1.2027   -1.0853    2.2587 C.3       1 <0>        -0.0033
      8 C7          0.1444   -2.9787    3.1786 C.3       1 <0>         0.0593
      9 O1          0.6171   -4.3028    2.9230 O.3       1 <0>        -0.2912
     10 C8          1.4640   -4.8427    3.8377 C.ar      1 <0>         0.1616
     11 C9          1.8202   -4.1130    4.9504 C.ar      1 <0>        -0.1789
     12 C10         2.6932   -4.6720    5.8915 C.ar      1 <0>         0.2014
     13 C11         3.1966   -5.9802    5.6839 C.ar      1 <0>        -0.1777
     14 C12         2.8191   -6.7007    4.5446 C.ar      1 <0>        -0.1416
     15 C13         1.9616   -6.1385    3.6420 C.ar      1 <0>         0.1108
     16 O2          1.5908   -6.8416    2.5386 O.3       1 <0>        -0.3024
     17 C14         2.1313   -8.1566    2.3954 C.3       1 <0>         0.0197
     18 C15         4.0767   -6.5184    6.6528 C.ar      1 <0>         0.4672
     19 N2          4.3849   -5.7710    7.7047 N.ar      1 <0>        -0.5767
     20 C16         3.8899   -4.5530    7.8566 C.ar      1 <0>         0.3484
     21 N3          3.0708   -4.0029    6.9923 N.ar      1 <0>        -0.5422
     22 N4          4.6001   -7.7873    6.5074 N.pl3     1 <0>        -0.6293
     23 C17         5.3579   -8.3540    7.5385 C.ar      1 <0>         0.1370
     24 C18         5.2705   -7.8445    8.8270 C.ar      1 <0>        -0.1038
     25 C19         6.0195   -8.4057    9.8431 C.ar      1 <0>        -0.0734
     26 C20         6.8569   -9.4749    9.5787 C.ar      1 <0>        -0.0854
     27 C21         6.9473   -9.9860    8.2962 C.ar      1 <0>        -0.1007
     28 C22         6.1958   -9.4325    7.2758 C.ar      1 <0>         0.0691
     29 F1          6.2797   -9.9350    6.0245 F         1 <0>        -0.1329
     30 Br1         7.8805  -10.2389   10.9732 Br        1 <0>        -0.0292
     31 H1         -1.5181    1.3480    1.3035 H         1 <0>         0.1250
     32 H2         -3.1000    1.0681    0.5371 H         1 <0>         0.1260
     33 H3         -2.9245    0.9063    2.3010 H         1 <0>         0.1228
     34 H4         -3.8025   -1.3559    2.1963 H         1 <0>         0.1294
     35 H5         -4.0205   -1.1074    0.4478 H         1 <0>         0.1324
     36 H6         -3.9210   -3.5236    0.9993 H         1 <0>         0.1148
     37 H7         -2.5368   -3.0413   -0.0119 H         1 <0>         0.0894
     38 H8         -2.5272   -3.3688    3.0244 H         1 <0>         0.0831
     39 H9         -1.7584   -4.4599    1.8446 H         1 <0>         0.1035
     40 H10        -0.2768   -2.6425    1.0919 H         1 <0>         0.1082
     41 H11        -0.3146   -0.4534    2.2578 H         1 <0>         0.1353
     42 H12        -1.7160   -0.9877    3.2153 H         1 <0>         0.1337
     43 H13         0.9914   -2.2948    3.2330 H         1 <0>         0.0790
     44 H14        -0.3970   -2.9625    4.1245 H         1 <0>         0.0792
     45 H15         1.4292   -3.1169    5.0956 H         1 <0>         0.1536
     46 H16         3.2006   -7.6980    4.3822 H         1 <0>         0.1420
     47 H17         1.7562   -8.6055    1.4757 H         1 <0>         0.1099
     48 H18         3.2191   -8.0999    2.3547 H         1 <0>         0.0601
     49 H19         1.8310   -8.7676    3.2467 H         1 <0>         0.0600
     50 H20         4.1728   -3.9867    8.7317 H         1 <0>         0.2037
     51 H21         4.4427   -8.2862    5.6906 H         1 <0>         0.4243
     52 H22         4.6175   -7.0097    9.0348 H         1 <0>         0.1817
     53 H23         5.9516   -8.0090   10.8453 H         1 <0>         0.1463
     54 H24         7.6021  -10.8205    8.0927 H         1 <0>         0.1517
     55 H25        -1.6441   -0.8041    0.2882 H         1 <0>         0.4259
@<TRIPOS>BOND
     1    1    2 1
     2    1   31 1
     3    1   32 1
     4    1   33 1
     5    2    7 1
     6    2    3 1
     7    2   55 1
     8    3    4 1
     9    3   34 1
    10    3   35 1
    11    4    5 1
    12    4   36 1
    13    4   37 1
    14    5    6 1
    15    5   38 1
    16    5   39 1
    17    6    7 1
    18    6    8 1
    19    6   40 1
    20    7   41 1
    21    7   42 1
    22    8    9 1
    23    8   43 1
    24    8   44 1
    25    9   10 1
    26   10   15 ar
    27   10   11 ar
    28   11   12 ar
    29   11   45 1
    30   12   21 ar
    31   12   13 ar
    32   13   14 ar
    33   13   18 ar
    34   14   15 ar
    35   14   46 1
    36   15   16 1
    37   16   17 1
    38   17   47 1
    39   17   48 1
    40   17   49 1
    41   18   19 ar
    42   18   22 1
    43   19   20 ar
    44   20   21 ar
    45   20   50 1
    46   22   23 1
    47   22   51 1
    48   23   28 ar
    49   23   24 ar
    50   24   25 ar
    51   24   52 1
    52   25   26 ar
    53   25   53 1
    54   26   27 ar
    55   26   30 1
    56   27   28 ar
    57   27   54 1
    58   28   29 1
@<TRIPOS>MOLECULE
CHEMBL585205
   65    69     0     0     0
SMALL
USER_CHARGES

@<TRIPOS>ATOM
      1 C1          3.1133    0.2147   -0.6725 C.3       1 <0>        -0.1721
      2 C2          1.6333    0.6026   -0.6629 C.3       1 <0>         0.0979
      3 N1          0.8409   -0.4800   -1.2513 N.pl3     1 <0>        -0.4546
      4 C3          0.5220   -0.6223   -2.5721 C.2       1 <0>        -0.0141
      5 C4         -0.2199   -1.7589   -2.6743 C.2       1 <0>         0.0623
      6 N2         -0.3392   -2.2822   -1.4357 N.2       1 <0>        -0.4698
      7 C5          0.2966   -1.5239   -0.5878 C.2       1 <0>         0.1972
      8 C6         -0.7920   -2.3189   -3.9173 C.2       1 <0>        -0.0120
      9 C7         -1.5407   -3.4409   -4.0741 C.2       1 <0>        -0.1344
     10 C8         -1.9966   -3.8090   -5.3538 C.ar      1 <0>         0.1646
     11 C9         -1.6181   -2.9418   -6.4019 C.ar      1 <0>        -0.2091
     12 S1         -0.6758   -1.6829   -5.5807 S.3       1 <0>         0.1014
     13 C10        -1.9926   -3.1740   -7.7122 C.ar      1 <0>         0.2115
     14 C11        -2.7655   -4.3028   -7.9803 C.ar      1 <0>        -0.2387
     15 C12        -3.1151   -5.1272   -6.9245 C.ar      1 <0>         0.1595
     16 N3         -2.7462   -4.8832   -5.6923 N.ar      1 <0>        -0.4777
     17 O1         -1.6196   -2.3289   -8.7070 O.3       1 <0>        -0.2371
     18 C13        -1.9376   -2.6674   -9.9852 C.ar      1 <0>         0.0217
     19 C14        -1.0098   -3.3243  -10.7796 C.ar      1 <0>        -0.0655
     20 C15        -1.3318   -3.6685  -12.0778 C.ar      1 <0>        -0.1431
     21 C16        -2.5847   -3.3568  -12.5889 C.ar      1 <0>         0.1917
     22 C17        -3.5144   -2.6992  -11.7946 C.ar      1 <0>        -0.1501
     23 C18        -3.1938   -2.3602  -10.4931 C.ar      1 <0>         0.1226
     24 F1         -4.0995   -1.7253   -9.7174 F         1 <0>        -0.1203
     25 N4         -2.9105   -3.7053  -13.9061 N.am      1 <0>        -0.6769
     26 C19        -4.1745   -4.0538  -14.2179 C.2       1 <0>         0.5112
     27 O2         -5.0091   -4.1545  -13.3436 O.2       1 <0>        -0.4627
     28 C20        -4.5509   -4.3184  -15.6530 C.3       1 <0>        -0.1648
     29 C21        -6.0101   -4.6869  -15.7298 C.2       1 <0>         0.5115
     30 O3         -6.6787   -4.7303  -14.7188 O.2       1 <0>        -0.4912
     31 N5         -6.5723   -4.9681  -16.9220 N.am      1 <0>        -0.7302
     32 C22        -7.9909   -5.3263  -16.9967 C.3       1 <0>         0.1465
     33 C23        -8.1533   -6.8244  -16.7319 C.3       1 <0>        -0.1290
     34 C24        -9.6348   -7.1985  -16.8099 C.3       1 <0>        -0.1185
     35 C25       -10.1721   -6.8656  -18.2033 C.3       1 <0>        -0.1225
     36 C26       -10.0097   -5.3675  -18.4681 C.3       1 <0>        -0.1172
     37 C27        -8.5282   -4.9934  -18.3900 C.3       1 <0>        -0.1256
     38 H1          3.2539   -0.6962   -0.0906 H         1 <0>         0.0658
     39 H2          3.4375    0.0437   -1.6991 H         1 <0>         0.0646
     40 H3          3.7029    1.0202   -0.2347 H         1 <0>         0.0803
     41 H4          1.3092    0.7736    0.3636 H         1 <0>         0.0997
     42 H5          1.4927    1.5135   -1.2449 H         1 <0>         0.0959
     43 H6          0.8035    0.0389   -3.3784 H         1 <0>         0.1811
     44 H7          0.3738   -1.7000    0.4750 H         1 <0>         0.2124
     45 H8         -1.7860   -4.0507   -3.2171 H         1 <0>         0.1543
     46 H9         -3.0841   -4.5285   -8.9872 H         1 <0>         0.1471
     47 H10        -3.7138   -6.0035   -7.1247 H         1 <0>         0.1667
     48 H11        -0.0349   -3.5665  -10.3831 H         1 <0>         0.1496
     49 H12        -0.6087   -4.1800  -12.6958 H         1 <0>         0.1454
     50 H13        -4.4888   -2.4562  -12.1918 H         1 <0>         0.1570
     51 H14        -2.2263   -3.6958  -14.5936 H         1 <0>         0.4162
     52 H15        -4.3706   -3.4225  -16.2470 H         1 <0>         0.1283
     53 H16        -3.9480   -5.1393  -16.0413 H         1 <0>         0.1275
     54 H17        -6.0376   -4.9334  -17.7306 H         1 <0>         0.3986
     55 H18        -8.5478   -4.7626  -16.2483 H         1 <0>         0.0888
     56 H19        -7.5963   -7.3881  -17.4804 H         1 <0>         0.0631
     57 H20        -7.7704   -7.0615  -15.7393 H         1 <0>         0.0674
     58 H21        -9.7505   -8.2658  -16.6213 H         1 <0>         0.0656
     59 H22       -10.1917   -6.6348  -16.0615 H         1 <0>         0.0650
     60 H23        -9.6152   -7.4293  -18.9517 H         1 <0>         0.0626
     61 H24       -11.2276   -7.1321  -18.2589 H         1 <0>         0.0647
     62 H25       -10.3926   -5.1304  -19.4607 H         1 <0>         0.0679
     63 H26       -10.5667   -4.8038  -17.7196 H         1 <0>         0.0657
     64 H27        -8.4125   -3.9261  -18.5787 H         1 <0>         0.0686
     65 H28        -7.9713   -5.5572  -19.1385 H         1 <0>         0.0681
@<TRIPOS>BOND
     1    1    2 1
     2    1   38 1
     3    1   39 1
     4    1   40 1
     5    2    3 1
     6    2   41 1
     7    2   42 1
     8    3    7 1
     9    3    4 1
    10    4    5 2
    11    4   43 1
    12    5    6 1
    13    5    8 1
    14    6    7 2
    15    7   44 1
    16    8   12 1
    17    8    9 2
    18    9   10 1
    19    9   45 1
    20   10   16 ar
    21   10   11 ar
    22   11   12 1
    23   11   13 ar
    24   13   14 ar
    25   13   17 1
    26   14   15 ar
    27   14   46 1
    28   15   16 ar
    29   15   47 1
    30   17   18 1
    31   18   23 ar
    32   18   19 ar
    33   19   20 ar
    34   19   48 1
    35   20   21 ar
    36   20   49 1
    37   21   22 ar
    38   21   25 1
    39   22   23 ar
    40   22   50 1
    41   23   24 1
    42   25   26 am
    43   25   51 1
    44   26   27 2
    45   26   28 1
    46   28   29 1
    47   28   52 1
    48   28   53 1
    49   29   30 2
    50   29   31 am
    51   31   32 1
    52   31   54 1
    53   32   37 1
    54   32   33 1
    55   32   55 1
    56   33   34 1
    57   33   56 1
    58   33   57 1
    59   34   35 1
    60   34   58 1
    61   34   59 1
    62   35   36 1
    63   35   60 1
    64   35   61 1
    65   36   37 1
    66   36   62 1
    67   36   63 1
    68   37   64 1
    69   37   65 1
@<TRIPOS>MOLECULE
CHEMBL585205__1
   66    70     0     0     0
SMALL
USER_CHARGES

@<TRIPOS>ATOM
      1 C1         -0.9719    0.1389    3.0374 C.3       1 <0>        -0.1811
      2 C2         -0.2467    0.5638    1.7590 C.3       1 <0>         0.0872
      3 N1          0.6758   -0.4965    1.3454 N.pl3     1 <0>        -0.4024
      4 C3          1.9812   -0.6261    1.7268 C.2       1 <0>         0.0488
      5 C4          2.4582   -1.7434    1.1128 C.2       1 <0>         0.1242
      6 N2          1.4533   -2.2679    0.3798 N.pl3     1 <0>        -0.4723
      7 C5          0.3894   -1.5288    0.5215 C.cat     1 <0>         0.3040
      8 C6          3.8292   -2.2845    1.2276 C.2       1 <0>        -0.1207
      9 C7          4.3567   -3.3868    0.6354 C.2       1 <0>        -0.0821
     10 C8          5.6985   -3.7389    0.8731 C.ar      1 <0>         0.1377
     11 C9          6.4036   -2.8778    1.7421 C.ar      1 <0>        -0.1936
     12 S1          5.2018   -1.6458    2.1727 S.3       1 <0>         0.1693
     13 C10         7.7291   -3.0960    2.0684 C.ar      1 <0>         0.2098
     14 C11         8.3651   -4.2040    1.5106 C.ar      1 <0>        -0.2124
     15 C12         7.6383   -5.0231    0.6636 C.ar      1 <0>         0.1675
     16 N3          6.3830   -4.7928    0.3719 N.ar      1 <0>        -0.4688
     17 O1          8.3911   -2.2570    2.9055 O.3       1 <0>        -0.2326
     18 C13         9.6622   -2.5829    3.2625 C.ar      1 <0>         0.0073
     19 C14         9.8969   -3.2601    4.4498 C.ar      1 <0>        -0.0619
     20 C15        11.1874   -3.5916    4.8132 C.ar      1 <0>        -0.1431
     21 C16        12.2513   -3.2467    3.9902 C.ar      1 <0>         0.2019
     22 C17        12.0177   -2.5688    2.8013 C.ar      1 <0>        -0.1502
     23 C18        10.7250   -2.2426    2.4349 C.ar      1 <0>         0.1253
     24 F1         10.4960   -1.5878    1.2756 F         1 <0>        -0.1209
     25 N4         13.5602   -3.5824    4.3597 N.am      1 <0>        -0.6780
     26 C19        14.4674   -3.8980    3.4142 C.2       1 <0>         0.5133
     27 O2         14.1288   -3.9807    2.2524 O.2       1 <0>        -0.4622
     28 C20        15.9024   -4.1480    3.8005 C.3       1 <0>        -0.1657
     29 C21        16.7039   -4.4795    2.5681 C.2       1 <0>         0.5120
     30 O3         16.1631   -4.5096    1.4830 O.2       1 <0>        -0.4938
     31 N5         18.0217   -4.7423    2.6718 N.am      1 <0>        -0.7287
     32 C22        18.8009   -5.0645    1.4737 C.3       1 <0>         0.1466
     33 C23        18.6761   -6.5590    1.1708 C.3       1 <0>        -0.1286
     34 C24        19.4898   -6.8955   -0.0804 C.3       1 <0>        -0.1184
     35 C25        20.9598   -6.5444    0.1576 C.3       1 <0>        -0.1232
     36 C26        21.0847   -5.0499    0.4606 C.3       1 <0>        -0.1173
     37 C27        20.2709   -4.7134    1.7118 C.3       1 <0>        -0.1260
     38 H1         -0.2422   -0.0366    3.8279 H         1 <0>         0.0747
     39 H2         -1.6582    0.9278    3.3451 H         1 <0>         0.1021
     40 H3         -1.5320   -0.7772    2.8500 H         1 <0>         0.0731
     41 H4         -0.9764    0.7393    0.9685 H         1 <0>         0.1254
     42 H5          0.3134    1.4799    1.9464 H         1 <0>         0.1266
     43 H6          2.5285    0.0305    2.3868 H         1 <0>         0.2267
     44 H7         -0.5669   -1.7105    0.0535 H         1 <0>         0.2670
     45 H8          3.7466   -3.9933   -0.0176 H         1 <0>         0.1496
     46 H9          9.3999   -4.4182    1.7337 H         1 <0>         0.1571
     47 H10         8.1244   -5.8834    0.2278 H         1 <0>         0.1766
     48 H11         9.0700   -3.5281    5.0908 H         1 <0>         0.1500
     49 H12        11.3692   -4.1189    5.7380 H         1 <0>         0.1485
     50 H13        12.8449   -2.3001    2.1610 H         1 <0>         0.1599
     51 H14        13.8136   -3.5877    5.2960 H         1 <0>         0.4184
     52 H15        16.3128   -3.2548    4.2715 H         1 <0>         0.1297
     53 H16        15.9502   -4.9824    4.5002 H         1 <0>         0.1288
     54 H17        18.4543   -4.7182    3.5397 H         1 <0>         0.3994
     55 H18        18.4223   -4.4896    0.6286 H         1 <0>         0.0888
     56 H19        19.0547   -7.1339    2.0160 H         1 <0>         0.0636
     57 H20        17.6288   -6.8091    1.0013 H         1 <0>         0.0664
     58 H21        19.4009   -7.9602   -0.2962 H         1 <0>         0.0659
     59 H22        19.1112   -6.3206   -0.9255 H         1 <0>         0.0647
     60 H23        21.3385   -7.1193    1.0028 H         1 <0>         0.0632
     61 H24        21.5396   -6.7841   -0.7338 H         1 <0>         0.0655
     62 H25        22.1320   -4.7998    0.6301 H         1 <0>         0.0690
     63 H26        20.7061   -4.4750   -0.3846 H         1 <0>         0.0656
     64 H27        20.3599   -3.6487    1.9276 H         1 <0>         0.0688
     65 H28        20.6496   -5.2883    2.5569 H         1 <0>         0.0687
     66 H29         1.5127   -3.0692   -0.1635 H         1 <0>         0.4655
@<TRIPOS>BOND
     1    1    2 1
     2    1   38 1
     3    1   39 1
     4    1   40 1
     5    2    3 1
     6    2   41 1
     7    2   42 1
     8    3    7 1
     9    3    4 1
    10    4    5 2
    11    4   43 1
    12    5    6 1
    13    5    8 1
    14    6    7 2
    15    6   66 1
    16    7   44 1
    17    8   12 1
    18    8    9 2
    19    9   10 1
    20    9   45 1
    21   10   16 ar
    22   10   11 ar
    23   11   12 1
    24   11   13 ar
    25   13   14 ar
    26   13   17 1
    27   14   15 ar
    28   14   46 1
    29   15   16 ar
    30   15   47 1
    31   17   18 1
    32   18   23 ar
    33   18   19 ar
    34   19   20 ar
    35   19   48 1
    36   20   21 ar
    37   20   49 1
    38   21   22 ar
    39   21   25 1
    40   22   23 ar
    41   22   50 1
    42   23   24 1
    43   25   26 am
    44   25   51 1
    45   26   27 2
    46   26   28 1
    47   28   29 1
    48   28   52 1
    49   28   53 1
    50   29   30 2
    51   29   31 am
    52   31   32 1
    53   31   54 1
    54   32   37 1
    55   32   33 1
    56   32   55 1
    57   33   34 1
    58   33   56 1
    59   33   57 1
    60   34   35 1
    61   34   58 1
    62   34   59 1
    63   35   36 1
    64   35   60 1
    65   35   61 1
    66   36   37 1
    67   36   62 1
    68   36   63 1
    69   37   64 1
    70   37   65 1
@<TRIPOS>MOLECULE
CHEMBL501751
   61    65     0     0     0
SMALL
USER_CHARGES

@<TRIPOS>ATOM
      1 C1          1.4775    0.1828   -3.8222 C.ar      1 <0>        -0.0867
      2 C2          0.8806    0.2976   -2.5788 C.ar      1 <0>        -0.1210
      3 C3          1.6010    0.0198   -1.4361 C.ar      1 <0>        -0.0879
      4 C4          2.9368   -0.3789   -1.5360 C.ar      1 <0>        -0.1080
      5 C5          3.5326   -0.4930   -2.7952 C.ar      1 <0>        -0.0749
      6 C6          2.7998   -0.2114   -3.9290 C.ar      1 <0>        -0.1169
      7 C7          3.7140   -0.6772   -0.3189 C.2       1 <0>         0.3262
      8 C8          3.2097   -1.5593    0.6284 C.2       1 <0>        -0.2100
      9 C9          1.9975   -2.3972    0.5114 C.ar      1 <0>        -0.0465
     10 C10         1.0428   -2.5713   -0.4850 C.ar      1 <0>        -0.0721
     11 C11        -0.0003   -3.4528   -0.2857 C.ar      1 <0>        -0.0719
     12 C12        -0.0962   -4.1609    0.9011 C.ar      1 <0>        -0.0123
     13 C13         0.8459   -3.9955    1.8964 C.ar      1 <0>        -0.0734
     14 C14         1.9026   -3.1128    1.7136 C.ar      1 <0>         0.1470
     15 N1          2.9731   -2.7509    2.5213 N.am      1 <0>        -0.6472
     16 C15         3.7550   -1.8474    1.9069 C.2       1 <0>         0.5669
     17 O1          4.7673   -1.3533    2.3728 O.2       1 <0>        -0.5010
     18 N2         -1.2196   -5.1033    1.1040 N.pl3     1 <0>         0.0299
     19 O2         -2.0481   -5.2521    0.2361 O.2       1 <0>        -0.1445
     20 O3         -1.3087   -5.7241    2.1375 O.3       1 <0>        -0.1501
     21 N3          4.9348   -0.0837   -0.1221 N.pl3     1 <0>        -0.6644
     22 C16         5.0340    1.3089   -0.0683 C.ar      1 <0>         0.2353
     23 C17         3.8843    2.0878   -0.0280 C.ar      1 <0>        -0.1726
     24 C18         3.9860    3.4639    0.0255 C.ar      1 <0>        -0.0508
     25 C19         5.2305    4.0669    0.0385 C.ar      1 <0>        -0.2063
     26 C20         6.3770    3.2947   -0.0016 C.ar      1 <0>        -0.0475
     27 C21         6.2827    1.9177   -0.0494 C.ar      1 <0>        -0.1667
     28 C22         5.3375    5.5690    0.0960 C.3       1 <0>         0.0502
     29 N4          5.3839    6.0033    1.4985 N.4       1 <0>        -0.3818
     30 C23         4.1136    5.6708    2.1544 C.3       1 <0>        -0.0119
     31 C24         4.1861    6.0474    3.6358 C.3       1 <0>        -0.1452
     32 C25         4.4495    7.5507    3.7623 C.3       1 <0>        -0.1388
     33 C26         5.7382    7.8981    3.0114 C.3       1 <0>        -0.1462
     34 C27         5.6081    7.4529    1.5532 C.3       1 <0>        -0.0071
     35 H1          0.9072    0.3976   -4.7138 H         1 <0>         0.1338
     36 H2         -0.1517    0.6057   -2.5033 H         1 <0>         0.1362
     37 H3          1.1342    0.1105   -0.4665 H         1 <0>         0.1309
     38 H4          4.5645   -0.8002   -2.8800 H         1 <0>         0.1275
     39 H5          3.2589   -0.2988   -4.9026 H         1 <0>         0.1342
     40 H6          1.1172   -2.0191   -1.4102 H         1 <0>         0.1571
     41 H7         -0.7438   -3.5906   -1.0568 H         1 <0>         0.1626
     42 H8          0.7611   -4.5525    2.8178 H         1 <0>         0.1613
     43 H9          3.1364   -3.1059    3.4091 H         1 <0>         0.4263
     44 H10         5.7293   -0.6308   -0.0201 H         1 <0>         0.4271
     45 H11         2.9121    1.6176   -0.0388 H         1 <0>         0.1343
     46 H12         3.0927    4.0700    0.0569 H         1 <0>         0.1325
     47 H13         7.3473    3.7688    0.0083 H         1 <0>         0.1348
     48 H14         7.1785    1.3151   -0.0766 H         1 <0>         0.1384
     49 H15         6.2467    5.8882   -0.4135 H         1 <0>         0.1347
     50 H16         4.4713    6.0140   -0.3937 H         1 <0>         0.1322
     51 H17         3.3038    6.2238    1.6786 H         1 <0>         0.1265
     52 H18         3.9259    4.6011    2.0608 H         1 <0>         0.1299
     53 H19         3.2414    5.8014    4.1206 H         1 <0>         0.1099
     54 H20         4.9955    5.4947    4.1127 H         1 <0>         0.0863
     55 H21         3.6157    8.1044    3.3309 H         1 <0>         0.0814
     56 H22         4.5583    7.8144    4.8143 H         1 <0>         0.0932
     57 H23         5.9028    8.9749    3.0498 H         1 <0>         0.1116
     58 H24         6.5798    7.3838    3.4753 H         1 <0>         0.0869
     59 H25         6.5238    7.6990    1.0156 H         1 <0>         0.1296
     60 H26         4.7665    7.9680    1.0901 H         1 <0>         0.1279
     61 H27         6.1386    5.5292    1.9716 H         1 <0>         0.4211
@<TRIPOS>BOND
     1    1    6 ar
     2    1    2 ar
     3    1   35 1
     4    2    3 ar
     5    2   36 1
     6    3    4 ar
     7    3   37 1
     8    4    5 ar
     9    4    7 1
    10    5    6 ar
    11    5   38 1
    12    6   39 1
    13    7    8 2
    14    7   21 1
    15    8   16 1
    16    8    9 1
    17    9   14 ar
    18    9   10 ar
    19   10   11 ar
    20   10   40 1
    21   11   12 ar
    22   11   41 1
    23   12   13 ar
    24   12   18 1
    25   13   14 ar
    26   13   42 1
    27   14   15 1
    28   15   16 am
    29   15   43 1
    30   16   17 2
    31   18   19 2
    32   18   20 1
    33   21   22 1
    34   21   44 1
    35   22   27 ar
    36   22   23 ar
    37   23   24 ar
    38   23   45 1
    39   24   25 ar
    40   24   46 1
    41   25   26 ar
    42   25   28 1
    43   26   27 ar
    44   26   47 1
    45   27   48 1
    46   28   29 1
    47   28   49 1
    48   28   50 1
    49   29   34 1
    50   29   30 1
    51   29   61 1
    52   30   31 1
    53   30   51 1
    54   30   52 1
    55   31   32 1
    56   31   53 1
    57   31   54 1
    58   32   33 1
    59   32   55 1
    60   32   56 1
    61   33   34 1
    62   33   57 1
    63   33   58 1
    64   34   59 1
    65   34   60 1
@<TRIPOS>MOLECULE
CHEMBL501751__1
   61    65     0     0     0
SMALL
USER_CHARGES

@<TRIPOS>ATOM
      1 C1          1.4943    0.1150   -3.8417 C.ar      1 <0>        -0.0843
      2 C2          0.8644    0.1508   -2.6100 C.ar      1 <0>        -0.1231
      3 C3          1.5789   -0.1054   -1.4586 C.ar      1 <0>        -0.0427
      4 C4          2.9424   -0.4020   -1.5379 C.ar      1 <0>        -0.1116
      5 C5          3.5716   -0.4367   -2.7855 C.ar      1 <0>        -0.0750
      6 C6          2.8442   -0.1779   -3.9281 C.ar      1 <0>        -0.1272
      7 C7          3.7135   -0.6766   -0.3114 C.2       1 <0>         0.3309
      8 C8          3.2204   -1.5667    0.6344 C.2       1 <0>        -0.2136
      9 C9          3.7984   -1.8702    1.9607 C.ar      1 <0>        -0.0503
     10 C10         4.9201   -1.4160    2.6463 C.ar      1 <0>        -0.0702
     11 C11         5.1965   -1.9074    3.9060 C.ar      1 <0>        -0.0748
     12 C12         4.3609   -2.8484    4.4851 C.ar      1 <0>        -0.0129
     13 C13         3.2451   -3.3058    3.8133 C.ar      1 <0>        -0.0734
     14 C14         2.9509   -2.8227    2.5446 C.ar      1 <0>         0.1529
     15 N1          1.9216   -3.0947    1.6527 N.am      1 <0>        -0.6482
     16 C15         2.0538   -2.3686    0.5300 C.2       1 <0>         0.5667
     17 O1          1.2963   -2.3960   -0.4246 O.2       1 <0>        -0.4818
     18 N2          4.6677   -3.3686    5.8366 N.pl3     1 <0>         0.0299
     19 O2          5.6437   -2.9722    6.4298 O.2       1 <0>        -0.1472
     20 O3          3.9422   -4.1900    6.3472 O.3       1 <0>        -0.1476
     21 N3          4.9176   -0.0532   -0.1043 N.pl3     1 <0>        -0.6765
     22 C16         4.9842    1.3418   -0.0643 C.ar      1 <0>         0.2274
     23 C17         3.8166    2.0946   -0.0548 C.ar      1 <0>        -0.1676
     24 C18         3.8861    3.4732   -0.0147 C.ar      1 <0>        -0.0504
     25 C19         5.1161    4.1046    0.0155 C.ar      1 <0>        -0.2024
     26 C20         6.2804    3.3583    0.0062 C.ar      1 <0>        -0.0474
     27 C21         6.2181    1.9792   -0.0281 C.ar      1 <0>        -0.1688
     28 C22         5.1880    5.6092    0.0582 C.3       1 <0>         0.0489
     29 N4          5.1971    6.0596    1.4565 N.4       1 <0>        -0.3815
     30 C23         3.9221    5.7051    2.0915 C.3       1 <0>        -0.0122
     31 C24         3.9572    6.0992    3.5696 C.3       1 <0>        -0.1449
     32 C25         4.1840    7.6094    3.6844 C.3       1 <0>        -0.1392
     33 C26         5.4788    7.9781    2.9545 C.3       1 <0>        -0.1461
     34 C27         5.3874    7.5144    1.4992 C.3       1 <0>        -0.0072
     35 H1          0.9288    0.3124   -4.7404 H         1 <0>         0.1299
     36 H2         -0.1893    0.3801   -2.5503 H         1 <0>         0.1306
     37 H3          1.0862   -0.0765   -0.4980 H         1 <0>         0.1227
     38 H4          4.6250   -0.6649   -2.8544 H         1 <0>         0.1229
     39 H5          3.3290   -0.2040   -4.8928 H         1 <0>         0.1305
     40 H6          5.5718   -0.6827    2.1949 H         1 <0>         0.1434
     41 H7          6.0667   -1.5576    4.4416 H         1 <0>         0.1606
     42 H8          2.6008   -4.0398    4.2742 H         1 <0>         0.1621
     43 H9          1.2011   -3.7224    1.8196 H         1 <0>         0.4275
     44 H10         5.7228   -0.5808    0.0144 H         1 <0>         0.4236
     45 H11         2.8556    1.6022   -0.0791 H         1 <0>         0.1360
     46 H12         2.9788    4.0590   -0.0073 H         1 <0>         0.1334
     47 H13         7.2393    3.8546    0.0295 H         1 <0>         0.1357
     48 H14         7.1277    1.3968   -0.0312 H         1 <0>         0.1392
     49 H15         6.0995    5.9437   -0.4372 H         1 <0>         0.1354
     50 H16         4.3216    6.0290   -0.4530 H         1 <0>         0.1328
     51 H17         3.1094    6.2344    1.5939 H         1 <0>         0.1267
     52 H18         3.7606    4.6305    2.0061 H         1 <0>         0.1298
     53 H19         3.0090    5.8369    4.0388 H         1 <0>         0.1101
     54 H20         4.7694    5.5703    4.0682 H         1 <0>         0.0864
     55 H21         3.3464    8.1393    3.2308 H         1 <0>         0.0814
     56 H22         4.2662    7.8868    4.7353 H         1 <0>         0.0935
     57 H23         5.6183    9.0587    2.9841 H         1 <0>         0.1118
     58 H24         6.3226    7.4881    3.4403 H         1 <0>         0.0870
     59 H25         6.3076    7.7755    0.9766 H         1 <0>         0.1299
     60 H26         4.5435    8.0051    1.0143 H         1 <0>         0.1280
     61 H27         5.9530    5.6079    1.9492 H         1 <0>         0.4208
@<TRIPOS>BOND
     1    1    6 ar
     2    1    2 ar
     3    1   35 1
     4    2    3 ar
     5    2   36 1
     6    3    4 ar
     7    3   37 1
     8    4    5 ar
     9    4    7 1
    10    5    6 ar
    11    5   38 1
    12    6   39 1
    13    7    8 2
    14    7   21 1
    15    8   16 1
    16    8    9 1
    17    9   14 ar
    18    9   10 ar
    19   10   11 ar
    20   10   40 1
    21   11   12 ar
    22   11   41 1
    23   12   13 ar
    24   12   18 1
    25   13   14 ar
    26   13   42 1
    27   14   15 1
    28   15   16 am
    29   15   43 1
    30   16   17 2
    31   18   19 2
    32   18   20 1
    33   21   22 1
    34   21   44 1
    35   22   27 ar
    36   22   23 ar
    37   23   24 ar
    38   23   45 1
    39   24   25 ar
    40   24   46 1
    41   25   26 ar
    42   25   28 1
    43   26   27 ar
    44   26   47 1
    45   27   48 1
    46   28   29 1
    47   28   49 1
    48   28   50 1
    49   29   34 1
    50   29   30 1
    51   29   61 1
    52   30   31 1
    53   30   51 1
    54   30   52 1
    55   31   32 1
    56   31   53 1
    57   31   54 1
    58   32   33 1
    59   32   55 1
    60   32   56 1
    61   33   34 1
    62   33   57 1
    63   33   58 1
    64   34   59 1
    65   34   60 1
@<TRIPOS>MOLECULE
CHEMBL502835
   74    78     0     0     0
SMALL
USER_CHARGES

@<TRIPOS>ATOM
      1 C1          1.2616   -3.4202   -3.5927 C.3       1 <0>        -0.0456
      2 N1          0.4160   -4.1435   -2.6336 N.4       1 <0>        -0.3892
      3 C2         -0.5808   -3.2238   -2.0695 C.3       1 <0>        -0.0012
      4 C3         -1.4739   -3.9812   -1.0844 C.3       1 <0>         0.0259
      5 N2         -0.6443   -4.5495   -0.0125 N.3       1 <0>        -0.5236
      6 C4          0.3747   -5.4533   -0.5647 C.3       1 <0>         0.0191
      7 C5          1.2526   -4.6838   -1.5540 C.3       1 <0>         0.0006
      8 C6         -1.4732   -5.2379    0.9860 C.3       1 <0>         0.0378
      9 C7         -0.6284   -5.5909    2.1829 C.2       1 <0>         0.5152
     10 O1          0.5484   -5.2979    2.2024 O.2       1 <0>        -0.5111
     11 N3         -1.1806   -6.2323    3.2319 N.am      1 <0>        -0.5637
     12 C8         -2.6224   -6.4907    3.2561 C.3       1 <0>         0.0715
     13 C9         -0.3759   -6.6518    4.2988 C.ar      1 <0>         0.0871
     14 C10         0.2366   -5.7121    5.1178 C.ar      1 <0>        -0.0574
     15 C11         1.0300   -6.1252    6.1689 C.ar      1 <0>        -0.1569
     16 C12         1.2155   -7.4812    6.4080 C.ar      1 <0>         0.2054
     17 C13         0.6023   -8.4210    5.5889 C.ar      1 <0>        -0.1622
     18 C14        -0.1952   -8.0074    4.5410 C.ar      1 <0>        -0.0740
     19 N4          2.0196   -7.9000    7.4727 N.pl3     1 <0>        -0.6660
     20 C15         2.3385   -9.2246    7.6101 C.2       1 <0>         0.3209
     21 C16         1.9918   -9.9070    8.7726 C.2       1 <0>        -0.2130
     22 C17         2.3855  -11.2777    9.1508 C.ar      1 <0>        -0.0556
     23 C18         3.1612  -12.2579    8.5334 C.ar      1 <0>        -0.0867
     24 C19         3.3512  -13.4637    9.1447 C.ar      1 <0>        -0.0788
     25 C20         2.7691  -13.7196   10.3923 C.ar      1 <0>        -0.0928
     26 C21         1.9904  -12.7442   11.0190 C.ar      1 <0>        -0.0681
     27 C22         1.7950  -11.5201   10.4027 C.ar      1 <0>         0.1316
     28 N5          1.0862  -10.3847   10.7764 N.am      1 <0>        -0.6518
     29 C23         1.1912   -9.4251    9.8420 C.2       1 <0>         0.5641
     30 O2          0.6797   -8.3204    9.9012 O.2       1 <0>        -0.5066
     31 C24         2.9786  -15.0238   11.0465 C.2       1 <0>         0.5078
     32 O3          2.4745  -15.2484   12.1291 O.2       1 <0>        -0.4985
     33 O4          3.7292  -15.9670   10.4439 O.3       1 <0>        -0.3475
     34 C25         3.8900  -17.2074   11.1350 C.3       1 <0>         0.0335
     35 C26         3.0491   -9.9280    6.5266 C.ar      1 <0>        -0.0945
     36 C27         2.5353  -11.1199    6.0077 C.ar      1 <0>        -0.0836
     37 C28         3.2056  -11.7722    4.9944 C.ar      1 <0>        -0.1223
     38 C29         4.3842  -11.2496    4.4911 C.ar      1 <0>        -0.0948
     39 C30         4.8990  -10.0700    4.9999 C.ar      1 <0>        -0.1201
     40 C31         4.2369   -9.4033    6.0093 C.ar      1 <0>        -0.0769
     41 H1          2.0005   -4.1028   -4.0125 H         1 <0>         0.1242
     42 H2          0.6409   -3.0191   -4.3940 H         1 <0>         0.1240
     43 H3          1.7707   -2.6021   -3.0833 H         1 <0>         0.1233
     44 H4         -0.0726   -2.4121   -1.5490 H         1 <0>         0.1387
     45 H5         -1.1925   -2.8136   -2.8730 H         1 <0>         0.1374
     46 H6         -2.2042   -3.2957   -0.6544 H         1 <0>         0.1250
     47 H7         -1.9927   -4.7846   -1.6074 H         1 <0>         0.0625
     48 H8          0.9931   -5.8418    0.2445 H         1 <0>         0.1394
     49 H9         -0.1136   -6.2810   -1.0791 H         1 <0>         0.0568
     50 H10         2.0001   -5.3559   -1.9754 H         1 <0>         0.1358
     51 H11         1.7514   -3.8646   -1.0362 H         1 <0>         0.1396
     52 H12        -2.2873   -4.5829    1.2963 H         1 <0>         0.1190
     53 H13        -1.8852   -6.1484    0.5508 H         1 <0>         0.0787
     54 H14        -2.8265   -7.4556    2.7921 H         1 <0>         0.0645
     55 H15        -2.9721   -6.5027    4.2884 H         1 <0>         0.0839
     56 H16        -3.1415   -5.7059    2.7058 H         1 <0>         0.0756
     57 H17         0.0924   -4.6580    4.9319 H         1 <0>         0.1260
     58 H18         1.5068   -5.3944    6.8053 H         1 <0>         0.1322
     59 H19         0.7466   -9.4751    5.7743 H         1 <0>         0.1299
     60 H20        -0.6754   -8.7379    3.9069 H         1 <0>         0.1257
     61 H21         2.3516   -7.2522    8.1139 H         1 <0>         0.4228
     62 H22         3.6115  -12.0635    7.5712 H         1 <0>         0.1423
     63 H23         3.9518  -14.2222    8.6648 H         1 <0>         0.1459
     64 H24         1.5419  -12.9445   11.9809 H         1 <0>         0.1452
     65 H25         0.5863  -10.2954   11.6029 H         1 <0>         0.4215
     66 H26         4.5143  -17.8756   10.5418 H         1 <0>         0.1062
     67 H27         4.3650  -17.0271   12.0993 H         1 <0>         0.0635
     68 H28         2.9134  -17.6657   11.2910 H         1 <0>         0.0633
     69 H29         1.6159  -11.5291    6.3997 H         1 <0>         0.1312
     70 H30         2.8100  -12.6934    4.5926 H         1 <0>         0.1325
     71 H31         4.9049  -11.7651    3.6977 H         1 <0>         0.1286
     72 H32         5.8192   -9.6681    4.6022 H         1 <0>         0.1296
     73 H33         4.6373   -8.4804    6.4020 H         1 <0>         0.1260
     74 H34        -0.0549   -4.9010   -3.1053 H         1 <0>         0.4216
@<TRIPOS>BOND
     1    1    2 1
     2    1   41 1
     3    1   42 1
     4    1   43 1
     5    2    7 1
     6    2    3 1
     7    2   74 1
     8    3    4 1
     9    3   44 1
    10    3   45 1
    11    4    5 1
    12    4   46 1
    13    4   47 1
    14    5    6 1
    15    5    8 1
    16    6    7 1
    17    6   48 1
    18    6   49 1
    19    7   50 1
    20    7   51 1
    21    8    9 1
    22    8   52 1
    23    8   53 1
    24    9   10 2
    25    9   11 am
    26   11   12 1
    27   11   13 1
    28   12   54 1
    29   12   55 1
    30   12   56 1
    31   13   18 ar
    32   13   14 ar
    33   14   15 ar
    34   14   57 1
    35   15   16 ar
    36   15   58 1
    37   16   17 ar
    38   16   19 1
    39   17   18 ar
    40   17   59 1
    41   18   60 1
    42   19   20 1
    43   19   61 1
    44   20   21 2
    45   20   35 1
    46   21   29 1
    47   21   22 1
    48   22   27 ar
    49   22   23 ar
    50   23   24 ar
    51   23   62 1
    52   24   25 ar
    53   24   63 1
    54   25   26 ar
    55   25   31 1
    56   26   27 ar
    57   26   64 1
    58   27   28 1
    59   28   29 am
    60   28   65 1
    61   29   30 2
    62   31   32 2
    63   31   33 1
    64   33   34 1
    65   34   66 1
    66   34   67 1
    67   34   68 1
    68   35   40 ar
    69   35   36 ar
    70   36   37 ar
    71   36   69 1
    72   37   38 ar
    73   37   70 1
    74   38   39 ar
    75   38   71 1
    76   39   40 ar
    77   39   72 1
    78   40   73 1
@<TRIPOS>MOLECULE
CHEMBL502835__1
   74    78     0     0     0
SMALL
USER_CHARGES

@<TRIPOS>ATOM
      1 C1          1.5229   -3.0496   -3.4162 C.3       1 <0>        -0.0457
      2 N1          0.6566   -3.8061   -2.5023 N.4       1 <0>        -0.3892
      3 C2         -0.3576   -2.9083   -1.9341 C.3       1 <0>        -0.0012
      4 C3         -1.2720   -3.6998   -0.9964 C.3       1 <0>         0.0260
      5 N2         -0.4670   -4.2995    0.0771 N.3       1 <0>        -0.5236
      6 C4          0.5690   -5.1819   -0.4780 C.3       1 <0>         0.0190
      7 C5          1.4682   -4.3781   -1.4199 C.3       1 <0>         0.0005
      8 C6         -1.3178   -5.0223    1.0320 C.3       1 <0>         0.0376
      9 C7         -0.5017   -5.4109    2.2378 C.2       1 <0>         0.5154
     10 O1          0.6731   -5.1148    2.2960 O.2       1 <0>        -0.5104
     11 N3         -1.0772   -6.0874    3.2515 N.am      1 <0>        -0.5649
     12 C8         -2.5189   -6.3471    3.2336 C.3       1 <0>         0.0716
     13 C9         -0.2970   -6.5422    4.3221 C.ar      1 <0>         0.0906
     14 C10         0.2942   -5.6303    5.1869 C.ar      1 <0>        -0.0579
     15 C11         1.0635   -6.0782    6.2418 C.ar      1 <0>        -0.1588
     16 C12         1.2461   -7.4414    6.4386 C.ar      1 <0>         0.1981
     17 C13         0.6543   -8.3533    5.5735 C.ar      1 <0>        -0.1571
     18 C14        -0.1192   -7.9050    4.5219 C.ar      1 <0>        -0.0737
     19 N4          2.0259   -7.8954    7.5069 N.pl3     1 <0>        -0.6762
     20 C15         2.3385   -9.2246    7.6101 C.2       1 <0>         0.3257
     21 C16         1.9759   -9.9385    8.7486 C.2       1 <0>        -0.2166
     22 C17         1.1431   -9.4624    9.8697 C.ar      1 <0>        -0.0586
     23 C18         0.5006   -8.2556   10.1425 C.ar      1 <0>        -0.0823
     24 C19        -0.2162   -8.1091   11.2951 C.ar      1 <0>        -0.0791
     25 C20        -0.3088   -9.1688   12.2056 C.ar      1 <0>        -0.0932
     26 C21         0.3311  -10.3817   11.9415 C.ar      1 <0>        -0.0676
     27 C22         1.0591  -10.5348   10.7739 C.ar      1 <0>         0.1333
     28 N5          1.7856  -11.5996   10.2546 N.am      1 <0>        -0.6520
     29 C23         2.3262  -11.2772    9.0677 C.2       1 <0>         0.5660
     30 O2          3.0094  -12.0138    8.3776 O.2       1 <0>        -0.4968
     31 C24        -1.0846   -9.0034   13.4481 C.2       1 <0>         0.5076
     32 O3         -1.1666   -9.9215   14.2399 O.2       1 <0>        -0.4978
     33 O4         -1.7028   -7.8340   13.7058 O.3       1 <0>        -0.3481
     34 C25        -2.4369   -7.7440   14.9286 C.3       1 <0>         0.0335
     35 C26         3.0591   -9.8996    6.5152 C.ar      1 <0>        -0.0978
     36 C27         4.2176   -9.3290    5.9802 C.ar      1 <0>        -0.0768
     37 C28         4.8862   -9.9661    4.9562 C.ar      1 <0>        -0.1289
     38 C29         4.4130  -11.1675    4.4581 C.ar      1 <0>        -0.0926
     39 C30         3.2666  -11.7386    4.9828 C.ar      1 <0>        -0.1241
     40 C31         2.5905  -11.1160    6.0109 C.ar      1 <0>        -0.0444
     41 H1          2.2748   -3.7160   -3.8390 H         1 <0>         0.1242
     42 H2          0.9208   -2.6250   -4.2195 H         1 <0>         0.1241
     43 H3          2.0159   -2.2466   -2.8683 H         1 <0>         0.1233
     44 H4          0.1341   -2.1120   -1.3753 H         1 <0>         0.1387
     45 H5         -0.9507   -2.4744   -2.7391 H         1 <0>         0.1374
     46 H6         -2.0155   -3.0308   -0.5631 H         1 <0>         0.1251
     47 H7         -1.7743   -4.4876   -1.5578 H         1 <0>         0.0625
     48 H8          1.1687   -5.5941    0.3335 H         1 <0>         0.1395
     49 H9          0.0970   -5.9941   -1.0308 H         1 <0>         0.0570
     50 H10         2.2287   -5.0339   -1.8438 H         1 <0>         0.1359
     51 H11         1.9506   -3.5743   -0.8638 H         1 <0>         0.1396
     52 H12        -2.1420   -4.3802    1.3426 H         1 <0>         0.1191
     53 H13        -1.7151   -5.9197    0.5576 H         1 <0>         0.0788
     54 H14        -2.7110   -7.2960    2.7328 H         1 <0>         0.0646
     55 H15        -2.8924   -6.3940    4.2565 H         1 <0>         0.0840
     56 H16        -3.0260   -5.5445    2.6981 H         1 <0>         0.0759
     57 H17         0.1522   -4.5707    5.0339 H         1 <0>         0.1266
     58 H18         1.5237   -5.3691    6.9139 H         1 <0>         0.1329
     59 H19         0.7964   -9.4130    5.7261 H         1 <0>         0.1311
     60 H20        -0.5829   -8.6140    3.8520 H         1 <0>         0.1263
     61 H21         2.3454   -7.2688    8.1749 H         1 <0>         0.4200
     62 H22         0.5703   -7.4364    9.4422 H         1 <0>         0.1320
     63 H23        -0.7128   -7.1733   11.5053 H         1 <0>         0.1456
     64 H24         0.2586  -11.1973   12.6458 H         1 <0>         0.1456
     65 H25         1.8853  -12.4613   10.6887 H         1 <0>         0.4220
     66 H26        -2.8837   -6.7533   15.0120 H         1 <0>         0.1061
     67 H27        -3.2230   -8.4990   14.9368 H         1 <0>         0.0634
     68 H28        -1.7639   -7.9111   15.7696 H         1 <0>         0.0637
     69 H29         4.5879   -8.3913    6.3676 H         1 <0>         0.1221
     70 H30         5.7813   -9.5263    4.5416 H         1 <0>         0.1264
     71 H31         4.9406  -11.6617    3.6558 H         1 <0>         0.1253
     72 H32         2.9032  -12.6763    4.5890 H         1 <0>         0.1274
     73 H33         1.6987  -11.5652    6.4226 H         1 <0>         0.1223
     74 H34         0.2007   -4.5496   -3.0096 H         1 <0>         0.4217
@<TRIPOS>BOND
     1    1    2 1
     2    1   41 1
     3    1   42 1
     4    1   43 1
     5    2    7 1
     6    2    3 1
     7    2   74 1
     8    3    4 1
     9    3   44 1
    10    3   45 1
    11    4    5 1
    12    4   46 1
    13    4   47 1
    14    5    6 1
    15    5    8 1
    16    6    7 1
    17    6   48 1
    18    6   49 1
    19    7   50 1
    20    7   51 1
    21    8    9 1
    22    8   52 1
    23    8   53 1
    24    9   10 2
    25    9   11 am
    26   11   12 1
    27   11   13 1
    28   12   54 1
    29   12   55 1
    30   12   56 1
    31   13   18 ar
    32   13   14 ar
    33   14   15 ar
    34   14   57 1
    35   15   16 ar
    36   15   58 1
    37   16   17 ar
    38   16   19 1
    39   17   18 ar
    40   17   59 1
    41   18   60 1
    42   19   20 1
    43   19   61 1
    44   20   21 2
    45   20   35 1
    46   21   29 1
    47   21   22 1
    48   22   27 ar
    49   22   23 ar
    50   23   24 ar
    51   23   62 1
    52   24   25 ar
    53   24   63 1
    54   25   26 ar
    55   25   31 1
    56   26   27 ar
    57   26   64 1
    58   27   28 1
    59   28   29 am
    60   28   65 1
    61   29   30 2
    62   31   32 2
    63   31   33 1
    64   33   34 1
    65   34   66 1
    66   34   67 1
    67   34   68 1
    68   35   40 ar
    69   35   36 ar
    70   36   37 ar
    71   36   69 1
    72   37   38 ar
    73   37   70 1
    74   38   39 ar
    75   38   71 1
    76   39   40 ar
    77   39   72 1
    78   40   73 1
@<TRIPOS>MOLECULE
CHEMBL220406
   61    67     0     0     0
SMALL
USER_CHARGES

@<TRIPOS>ATOM
      1 C1          1.1116    1.5540   -2.5803 C.3       1 <0>        -0.1518
      2 C2          1.1407    0.0244   -2.5968 C.3       1 <0>        -0.1494
      3 C3          0.6923   -0.5090   -1.2347 C.3       1 <0>         0.1009
      4 N1          0.7202   -1.9736   -1.2506 N.pl3     1 <0>        -0.4946
      5 C4          1.7571   -2.7446   -0.7856 C.ar      1 <0>         0.1338
      6 C5          2.9753   -2.3855   -0.2110 C.ar      1 <0>        -0.1179
      7 C6          3.8280   -3.4107    0.1607 C.ar      1 <0>        -0.1050
      8 C7          3.4989   -4.7476   -0.0242 C.ar      1 <0>         0.1124
      9 C8          2.2876   -5.1286   -0.5925 C.ar      1 <0>        -0.0539
     10 C9          1.4204   -4.1040   -0.9677 C.ar      1 <0>        -0.0808
     11 C10         0.0859   -4.1282   -1.5723 C.ar      1 <0>        -0.0986
     12 C11        -0.2971   -2.7795   -1.7308 C.ar      1 <0>         0.1899
     13 C12        -1.5377   -2.4697   -2.2837 C.ar      1 <0>        -0.1214
     14 C13        -2.3735   -3.4994   -2.7038 C.ar      1 <0>         0.1292
     15 C14        -2.0150   -4.8453   -2.5153 C.ar      1 <0>        -0.1986
     16 C15        -0.7732   -5.1460   -1.9562 C.ar      1 <0>        -0.0109
     17 C16        -0.6872   -6.6504   -1.8941 C.3       1 <0>         0.1372
     18 N2         -1.9414   -7.1555   -2.4636 N.am      1 <0>        -0.7198
     19 C17        -2.7084   -6.1087   -2.8107 C.2       1 <0>         0.5771
     20 O1         -3.8137   -6.1935   -3.3108 O.2       1 <0>        -0.5349
     21 C18        -3.6247   -3.1214   -3.3974 C.2       1 <0>        -0.2412
     22 C19        -4.7214   -3.8343   -3.7288 C.2       1 <0>         0.1029
     23 N3         -5.5837   -2.9892   -4.3383 N.pl3     1 <0>        -0.3870
     24 N4         -4.9944   -1.7155   -4.3864 N.2       1 <0>        -0.2903
     25 C20        -3.8251   -1.7835   -3.8388 C.2       1 <0>         0.0927
     26 C21        -2.7605   -0.7328   -3.6536 C.3       1 <0>        -0.0322
     27 C22        -1.9636   -1.0307   -2.3858 C.3       1 <0>        -0.0852
     28 C23        -6.9064   -3.3423   -4.8598 C.3       1 <0>         0.1034
     29 N5          4.4091   -5.7361    0.3709 N.am      1 <0>        -0.6673
     30 C24         4.5132   -6.8780   -0.3373 C.2       1 <0>         0.6069
     31 O2          3.8883   -7.0107   -1.3734 O.2       1 <0>        -0.5070
     32 C25         5.3789   -7.9599    0.1400 C.2       1 <0>        -0.2640
     33 C26         5.6286   -9.1974   -0.4339 C.2       1 <0>        -0.0605
     34 C27         6.4974  -10.0101    0.2542 C.2       1 <0>        -0.1857
     35 C28         7.0384   -9.5638    1.4147 C.2       1 <0>        -0.2160
     36 S1          6.3916   -8.0251    1.6057 S.3       1 <0>         0.2078
     37 H1          0.0978    1.8959   -2.3720 H         1 <0>         0.0597
     38 H2          1.7853    1.9219   -1.8064 H         1 <0>         0.0585
     39 H3          1.4310    1.9340   -3.5507 H         1 <0>         0.0635
     40 H4          0.4670   -0.3435   -3.3708 H         1 <0>         0.0750
     41 H5          2.1545   -0.3175   -2.8051 H         1 <0>         0.0724
     42 H6          1.3660   -0.1411   -0.4608 H         1 <0>         0.0930
     43 H7         -0.3215   -0.1671   -1.0265 H         1 <0>         0.0987
     44 H8          3.2430   -1.3499   -0.0621 H         1 <0>         0.1371
     45 H9          4.7793   -3.1633    0.6082 H         1 <0>         0.1304
     46 H10         2.0317   -6.1680   -0.7363 H         1 <0>         0.1441
     47 H11         0.1601   -7.0020   -2.4827 H         1 <0>         0.1043
     48 H12        -0.5869   -6.9776   -0.8592 H         1 <0>         0.1004
     49 H13        -2.1826   -8.0900   -2.5606 H         1 <0>         0.4266
     50 H14        -4.8813   -4.8859   -3.5416 H         1 <0>         0.2210
     51 H15        -2.0907   -0.7392   -4.5135 H         1 <0>         0.0874
     52 H16        -3.2291    0.2474   -3.5660 H         1 <0>         0.0894
     53 H17        -2.5775   -0.7842   -1.5195 H         1 <0>         0.0787
     54 H18        -1.0747   -0.4001   -2.3739 H         1 <0>         0.0941
     55 H19        -7.6541   -3.2019   -4.0792 H         1 <0>         0.0744
     56 H20        -7.1443   -2.7031   -5.7101 H         1 <0>         0.0885
     57 H21        -6.9050   -4.3848   -5.1782 H         1 <0>         0.0899
     58 H22         4.9644   -5.5988    1.1542 H         1 <0>         0.4091
     59 H23         5.1692   -9.5032   -1.3623 H         1 <0>         0.1515
     60 H24         6.7455  -10.9908   -0.1240 H         1 <0>         0.1410
     61 H25         7.7304  -10.0780    2.0650 H         1 <0>         0.1911
@<TRIPOS>BOND
     1    1    2 1
     2    1   37 1
     3    1   38 1
     4    1   39 1
     5    2    3 1
     6    2   40 1
     7    2   41 1
     8    3    4 1
     9    3   42 1
    10    3   43 1
    11    4   12 1
    12    4    5 1
    13    5   10 ar
    14    5    6 ar
    15    6    7 ar
    16    6   44 1
    17    7    8 ar
    18    7   45 1
    19    8    9 ar
    20    8   29 1
    21    9   10 ar
    22    9   46 1
    23   10   11 1
    24   11   16 ar
    25   11   12 ar
    26   12   13 ar
    27   13   27 1
    28   13   14 ar
    29   14   15 ar
    30   14   21 1
    31   15   19 1
    32   15   16 ar
    33   16   17 1
    34   17   18 1
    35   17   47 1
    36   17   48 1
    37   18   19 am
    38   18   49 1
    39   19   20 2
    40   21   25 1
    41   21   22 2
    42   22   23 1
    43   22   50 1
    44   23   24 1
    45   23   28 1
    46   24   25 2
    47   25   26 1
    48   26   27 1
    49   26   51 1
    50   26   52 1
    51   27   53 1
    52   27   54 1
    53   28   55 1
    54   28   56 1
    55   28   57 1
    56   29   30 am
    57   29   58 1
    58   30   31 2
    59   30   32 1
    60   32   36 1
    61   32   33 2
    62   33   34 1
    63   33   59 1
    64   34   35 2
    65   34   60 1
    66   35   36 1
    67   35   61 1
@<TRIPOS>MOLECULE
CHEMBL190872
   47    49     0     0     0
SMALL
USER_CHARGES

@<TRIPOS>ATOM
      1 C1         -0.1884    1.2078    0.8225 C.3       1 <0>        -0.1504
      2 C2         -0.0682   -0.2987    0.5837 C.3       1 <0>        -0.6100
      3 S1          0.6374   -0.5959   -1.0608 S.o2      1 <0>         2.4975
      4 O1         -0.2803   -0.1913   -2.0675 O.2       1 <0>        -0.9254
      5 O2          1.9906   -0.1638   -1.0982 O.2       1 <0>        -0.9373
      6 C3          0.7212   -2.3497   -1.2074 C.ar      1 <0>        -0.6682
      7 C4          1.8540   -3.0234   -0.7890 C.ar      1 <0>        -0.0070
      8 C5          1.9257   -4.3996   -0.9015 C.ar      1 <0>        -0.2006
      9 C6          0.8609   -5.1078   -1.4340 C.ar      1 <0>         0.1469
     10 C7         -0.2810   -4.4299   -1.8554 C.ar      1 <0>         0.1264
     11 C8         -0.3476   -3.0492   -1.7350 C.ar      1 <0>        -0.0379
     12 N1         -1.3604   -5.1404   -2.3945 N.pl3     1 <0>        -0.6040
     13 C9         -2.4315   -4.4615   -2.9346 C.2       1 <0>         0.4551
     14 N2         -2.5179   -3.1584   -3.0748 N.2       1 <0>        -0.5153
     15 C10        -3.6980   -2.8603   -3.6356 C.2       1 <0>         0.0356
     16 C11        -4.3604   -4.0283   -3.8469 C.2       1 <0>        -0.0459
     17 O3         -3.5541   -5.0246   -3.4084 O.3       1 <0>        -0.2068
     18 C12        -5.6987   -4.1818   -4.4443 C.ar      1 <0>         0.0303
     19 C13        -6.4120   -3.0529   -4.8625 C.ar      1 <0>        -0.1090
     20 C14        -7.6517   -3.1954   -5.4158 C.ar      1 <0>        -0.0471
     21 C15        -8.2093   -4.4698   -5.5643 C.ar      1 <0>        -0.1398
     22 C16        -7.4963   -5.5984   -5.1463 C.ar      1 <0>        -0.0774
     23 C17        -6.2540   -5.4569   -4.5986 C.ar      1 <0>        -0.1160
     24 C18        -9.5491   -4.6234   -6.1612 C.2       1 <0>         0.5626
     25 O4        -10.1691   -3.6422   -6.5243 O.2       1 <0>        -0.5368
     26 N3        -10.0864   -5.8511   -6.3044 N.am      1 <0>        -0.8506
     27 O5          0.9302   -6.4613   -1.5456 O.3       1 <0>        -0.3181
     28 C19         2.1319   -7.0889   -1.0938 C.3       1 <0>         0.0254
     29 H1          0.7992    1.6650    0.7628 H         1 <0>         0.0742
     30 H2         -0.8377    1.6452    0.0641 H         1 <0>         0.0753
     31 H3         -0.6124    1.3863    1.8106 H         1 <0>         0.0845
     32 H4          0.5811   -0.7361    1.3421 H         1 <0>         0.1340
     33 H5         -1.0559   -0.7560    0.6433 H         1 <0>         0.1351
     34 H6          2.6852   -2.4730   -0.3735 H         1 <0>         0.1475
     35 H7          2.8122   -4.9225   -0.5743 H         1 <0>         0.1460
     36 H8         -1.2327   -2.5209   -2.0572 H         1 <0>         0.2063
     37 H9         -1.3544   -6.1103   -2.3879 H         1 <0>         0.4330
     38 H10        -4.0579   -1.8708   -3.8758 H         1 <0>         0.1969
     39 H11        -5.9819   -2.0690   -4.7473 H         1 <0>         0.1404
     40 H12        -8.2023   -2.3242   -5.7386 H         1 <0>         0.1458
     41 H13        -7.9271   -6.5822   -5.2607 H         1 <0>         0.1312
     42 H14        -5.7016   -6.3287   -4.2803 H         1 <0>         0.1331
     43 H15        -9.5918   -6.6337   -6.0148 H         1 <0>         0.4010
     44 H16       -10.9676   -5.9521   -6.6970 H         1 <0>         0.4071
     45 H17         2.9786   -6.7044   -1.6624 H         1 <0>         0.0628
     46 H18         2.2778   -6.8745   -0.0351 H         1 <0>         0.0624
     47 H19         2.0559   -8.1665   -1.2391 H         1 <0>         0.1069
@<TRIPOS>BOND
     1    1    2 1
     2    1   29 1
     3    1   30 1
     4    1   31 1
     5    2    3 1
     6    2   32 1
     7    2   33 1
     8    3    4 2
     9    3    5 2
    10    3    6 1
    11    6   11 ar
    12    6    7 ar
    13    7    8 ar
    14    7   34 1
    15    8    9 ar
    16    8   35 1
    17    9   10 ar
    18    9   27 1
    19   10   11 ar
    20   10   12 1
    21   11   36 1
    22   12   13 1
    23   12   37 1
    24   13   17 1
    25   13   14 2
    26   14   15 1
    27   15   16 2
    28   15   38 1
    29   16   17 1
    30   16   18 1
    31   18   23 ar
    32   18   19 ar
    33   19   20 ar
    34   19   39 1
    35   20   21 ar
    36   20   40 1
    37   21   22 ar
    38   21   24 1
    39   22   23 ar
    40   22   41 1
    41   23   42 1
    42   24   25 2
    43   24   26 am
    44   26   43 1
    45   26   44 1
    46   27   28 1
    47   28   45 1
    48   28   46 1
    49   28   47 1
@<TRIPOS>MOLECULE
CHEMBL373693
   36    38     0     0     0
SMALL
USER_CHARGES

@<TRIPOS>ATOM
      1 C1         -0.0163    1.3847    0.0193 C.ar      1 <0>        -0.1985
      2 C2          1.1786    2.0770    0.0151 C.ar      1 <0>         0.1403
      3 N1          2.3316    1.4364   -0.0030 N.ar      1 <0>        -0.4715
      4 C3          2.3909    0.1135   -0.0174 C.ar      1 <0>         0.3649
      5 C4          1.2268   -0.6472   -0.0143 C.ar      1 <0>        -0.1825
      6 C5          0.0022   -0.0033    0.0046 C.ar      1 <0>        -0.0046
      7 C6         -1.2825   -0.7911    0.0091 C.3       1 <0>         0.0915
      8 N2         -1.7137   -1.0326   -1.3742 N.3       1 <0>        -0.5314
      9 C7         -2.0850    0.2257   -2.0376 C.3       1 <0>         0.0124
     10 C8         -2.4697   -0.0641   -3.4909 C.3       1 <0>         0.0632
     11 O1         -3.5305   -1.0229   -3.5159 O.3       1 <0>        -0.3844
     12 C9         -3.2029   -2.2607   -2.8789 C.3       1 <0>         0.0630
     13 C10        -2.8256   -1.9932   -1.4194 C.3       1 <0>         0.0173
     14 N3          3.6295   -0.5212   -0.0363 N.pl3     1 <0>        -0.5945
     15 C11         4.7865    0.2253   -0.1476 C.2       1 <0>         0.3075
     16 N4          4.9134    1.5396   -0.1522 N.2       1 <0>        -0.5246
     17 C12         6.0863    2.1134   -0.2662 C.2       1 <0>         0.1648
     18 C13         7.1783    1.2655   -0.3808 C.2       1 <0>        -0.2185
     19 S1          6.3695   -0.3246   -0.3022 S.3       1 <0>         0.1858
     20 C14         8.5688    1.5786   -0.5189 C.1       1 <0>         0.3043
     21 N5          9.6719    1.8269   -0.6285 N.1       1 <0>        -0.4021
     22 H1         -0.9554    1.9176    0.0383 H         1 <0>         0.1340
     23 H2          1.1690    3.1569    0.0265 H         1 <0>         0.1617
     24 H3          1.2778   -1.7259   -0.0267 H         1 <0>         0.1375
     25 H4         -1.1220   -1.7450    0.5115 H         1 <0>         0.0913
     26 H5         -2.0523   -0.2277    0.5365 H         1 <0>         0.0537
     27 H6         -2.9326    0.6741   -1.5193 H         1 <0>         0.0460
     28 H7         -1.2390    0.9125   -2.0151 H         1 <0>         0.0908
     29 H8         -2.8004    0.8572   -3.9705 H         1 <0>         0.0998
     30 H9         -1.6062   -0.4627   -4.0234 H         1 <0>         0.0599
     31 H10        -4.0638   -2.9281   -2.9158 H         1 <0>         0.1004
     32 H11        -2.3607   -2.7232   -3.3936 H         1 <0>         0.0607
     33 H12        -2.5202   -2.9261   -0.9456 H         1 <0>         0.0889
     34 H13        -3.6850   -1.5803   -0.8912 H         1 <0>         0.0464
     35 H14         3.6802   -1.4876    0.0287 H         1 <0>         0.4388
     36 H15         6.1966    3.1878   -0.2709 H         1 <0>         0.1878
@<TRIPOS>BOND
     1    1    6 ar
     2    1    2 ar
     3    1   22 1
     4    2    3 ar
     5    2   23 1
     6    3    4 ar
     7    4    5 ar
     8    4   14 1
     9    5    6 ar
    10    5   24 1
    11    6    7 1
    12    7    8 1
    13    7   25 1
    14    7   26 1
    15    8   13 1
    16    8    9 1
    17    9   10 1
    18    9   27 1
    19    9   28 1
    20   10   11 1
    21   10   29 1
    22   10   30 1
    23   11   12 1
    24   12   13 1
    25   12   31 1
    26   12   32 1
    27   13   33 1
    28   13   34 1
    29   14   15 1
    30   14   35 1
    31   15   19 1
    32   15   16 2
    33   16   17 1
    34   17   18 2
    35   17   36 1
    36   18   19 1
    37   18   20 1
    38   20   21 3
@<TRIPOS>MOLECULE
CHEMBL435702
   60    64     0     0     0
SMALL
USER_CHARGES

@<TRIPOS>ATOM
      1 C1         -0.0168    1.3792    0.0114 C.ar      1 <0>        -0.1150
      2 C2          0.0428    0.0799   -0.4609 C.ar      1 <0>        -0.1093
      3 C3          1.2451   -0.5959   -0.4797 C.ar      1 <0>        -0.1286
      4 C4          2.4038    0.0341   -0.0206 C.ar      1 <0>        -0.0130
      5 C5          2.3363    1.3455    0.4547 C.ar      1 <0>        -0.0998
      6 C6          1.1273    2.0095    0.4678 C.ar      1 <0>        -0.1077
      7 C7          3.6947   -0.6835   -0.0372 C.2       1 <0>        -0.0171
      8 C8          4.9504   -0.1170   -0.0406 C.2       1 <0>         0.0649
      9 N1          5.8497   -1.0949   -0.0570 N.2       1 <0>        -0.4741
     10 C9          5.2293   -2.2697   -0.0644 C.2       1 <0>         0.2117
     11 N2          3.8761   -2.0465   -0.0463 N.pl3     1 <0>        -0.3500
     12 C10         2.9942   -3.0895   -0.0431 C.2       1 <0>         0.0577
     13 C11         3.4292   -4.3636   -0.0538 C.2       1 <0>        -0.1245
     14 C12         4.8179   -4.6397   -0.0690 C.2       1 <0>        -0.0598
     15 C13         5.7173   -3.5877   -0.0816 C.2       1 <0>        -0.0348
     16 C14         5.3023   -6.0379   -0.0802 C.2       1 <0>         0.0700
     17 C15         6.6880   -6.3188   -0.0896 C.2       1 <0>        -0.2070
     18 C16         7.1122   -7.6003   -0.0998 C.2       1 <0>         0.1247
     19 N3          6.2254   -8.6306   -0.1013 N.am      1 <0>        -0.5030
     20 C17         4.8983   -8.4078   -0.0931 C.2       1 <0>         0.5195
     21 O1          4.1225   -9.3507   -0.0947 O.2       1 <0>        -0.5481
     22 C18         4.4042   -7.0961   -0.0760 C.2       1 <0>        -0.2327
     23 C19         6.7234  -10.0083   -0.1126 C.3       1 <0>         0.0968
     24 C20         6.9047  -10.4968    1.3260 C.3       1 <0>        -0.1676
     25 C21         7.4249  -11.9356    1.3142 C.3       1 <0>        -0.0051
     26 N4          7.5989  -12.4047    2.6954 N.4       1 <0>        -0.3828
     27 C22         8.6440  -11.6104    3.3522 C.3       1 <0>        -0.0123
     28 C23         8.7731  -12.0405    4.8151 C.3       1 <0>        -0.1463
     29 C24         9.1450  -13.5249    4.8741 C.3       1 <0>        -0.1394
     30 C25         8.0864  -14.3365    4.1219 C.3       1 <0>        -0.1469
     31 C26         7.9828  -13.8214    2.6847 C.3       1 <0>        -0.0065
     32 H1         -0.9600    1.9053    0.0197 H         1 <0>         0.1278
     33 H2         -0.8541   -0.4062   -0.8153 H         1 <0>         0.1277
     34 H3          1.2902   -1.6101   -0.8483 H         1 <0>         0.1187
     35 H4          3.2285    1.8384    0.8115 H         1 <0>         0.1306
     36 H5          1.0737    3.0237    0.8352 H         1 <0>         0.1313
     37 H6          5.1669    0.9410   -0.0319 H         1 <0>         0.1905
     38 H7          1.9330   -2.8893   -0.0315 H         1 <0>         0.1713
     39 H8          2.7178   -5.1762   -0.0503 H         1 <0>         0.1577
     40 H9          6.7805   -3.7772   -0.0912 H         1 <0>         0.1595
     41 H10         7.4047   -5.5108   -0.0889 H         1 <0>         0.1544
     42 H11         8.1716   -7.8102   -0.1073 H         1 <0>         0.1672
     43 H12         3.3402   -6.9115   -0.0645 H         1 <0>         0.1558
     44 H13         6.0072  -10.6494   -0.6265 H         1 <0>         0.1117
     45 H14         7.6811  -10.0442   -0.6319 H         1 <0>         0.1024
     46 H15         7.6210   -9.8557    1.8398 H         1 <0>         0.0928
     47 H16         5.9471  -10.4609    1.8453 H         1 <0>         0.0971
     48 H17         6.7086  -12.5767    0.8003 H         1 <0>         0.1365
     49 H18         8.3825  -11.9716    0.7949 H         1 <0>         0.1335
     50 H19         9.5943  -11.7685    2.8423 H         1 <0>         0.1295
     51 H20         8.3795  -10.5540    3.3065 H         1 <0>         0.1293
     52 H21         9.5508  -11.4508    5.3005 H         1 <0>         0.1122
     53 H22         7.8234  -11.8826    5.3260 H         1 <0>         0.0874
     54 H23        10.1188  -13.6755    4.4083 H         1 <0>         0.0820
     55 H24         9.1828  -13.8501    5.9138 H         1 <0>         0.0945
     56 H25         8.3732  -15.3880    4.1118 H         1 <0>         0.1130
     57 H26         7.1224  -14.2262    4.6185 H         1 <0>         0.0878
     58 H27         7.2301  -14.3972    2.1462 H         1 <0>         0.1311
     59 H28         8.9472  -13.9324    2.1890 H         1 <0>         0.1291
     60 H29         6.7309  -12.2962    3.1982 H         1 <0>         0.4238
@<TRIPOS>BOND
     1    1    6 ar
     2    1    2 ar
     3    1   32 1
     4    2    3 ar
     5    2   33 1
     6    3    4 ar
     7    3   34 1
     8    4    5 ar
     9    4    7 1
    10    5    6 ar
    11    5   35 1
    12    6   36 1
    13    7   11 1
    14    7    8 2
    15    8    9 1
    16    8   37 1
    17    9   10 2
    18   10   15 1
    19   10   11 1
    20   11   12 1
    21   12   13 2
    22   12   38 1
    23   13   14 1
    24   13   39 1
    25   14   15 2
    26   14   16 1
    27   15   40 1
    28   16   22 2
    29   16   17 1
    30   17   18 2
    31   17   41 1
    32   18   19 1
    33   18   42 1
    34   19   20 am
    35   19   23 1
    36   20   21 2
    37   20   22 1
    38   22   43 1
    39   23   24 1
    40   23   44 1
    41   23   45 1
    42   24   25 1
    43   24   46 1
    44   24   47 1
    45   25   26 1
    46   25   48 1
    47   25   49 1
    48   26   31 1
    49   26   27 1
    50   26   60 1
    51   27   28 1
    52   27   50 1
    53   27   51 1
    54   28   29 1
    55   28   52 1
    56   28   53 1
    57   29   30 1
    58   29   54 1
    59   29   55 1
    60   30   31 1
    61   30   56 1
    62   30   57 1
    63   31   58 1
    64   31   59 1
@<TRIPOS>MOLECULE
CHEMBL194176
   52    55     0     0     0
SMALL
USER_CHARGES

@<TRIPOS>ATOM
      1 C1         -0.6170    1.2186   -0.5339 C.3       1 <0>        -0.1502
      2 C2         -0.4506   -0.2906   -0.3454 C.3       1 <0>        -0.6103
      3 S1          0.6222   -0.6069    1.0828 S.o2      1 <0>         2.4975
      4 O1          1.9479   -0.1780    0.8036 O.2       1 <0>        -0.9256
      5 O2         -0.0297   -0.2114    2.2818 O.2       1 <0>        -0.9379
      6 C3          0.7304   -2.3625    1.1878 C.ar      1 <0>        -0.6677
      7 C4         -0.1905   -3.0662    1.9418 C.ar      1 <0>        -0.0090
      8 C5         -0.1108   -4.4439    2.0281 C.ar      1 <0>        -0.2003
      9 C6          0.8935   -5.1233    1.3582 C.ar      1 <0>         0.1453
     10 C7          1.8216   -4.4150    0.5979 C.ar      1 <0>         0.1298
     11 C8          1.7321   -3.0330    0.5118 C.ar      1 <0>        -0.0394
     12 N1          2.8389   -5.0962   -0.0814 N.pl3     1 <0>        -0.6058
     13 C9          3.8352   -4.3880   -0.7219 C.2       1 <0>         0.4491
     14 N2          3.9820   -3.0842   -0.6970 N.2       1 <0>        -0.5140
     15 C10         5.0569   -2.7553   -1.4304 C.2       1 <0>         0.0205
     16 C11         5.5865   -3.9034   -1.9219 C.2       1 <0>        -0.0291
     17 O3          4.8163   -4.9206   -1.4678 O.3       1 <0>        -0.2062
     18 C12         6.7795   -4.0220   -2.7848 C.ar      1 <0>        -0.0077
     19 C13         7.4841   -2.8776   -3.1671 C.ar      1 <0>        -0.0883
     20 C14         8.5987   -2.9883   -3.9733 C.ar      1 <0>        -0.1122
     21 C15         9.0245   -4.2291   -4.4070 C.ar      1 <0>        -0.0955
     22 C16         8.3301   -5.3789   -4.0325 C.ar      1 <0>        -0.0459
     23 C17         7.2089   -5.2767   -3.2154 C.ar      1 <0>        -0.0654
     24 C18         8.7899   -6.7098   -4.4999 C.ar      1 <0>         0.1663
     25 C19         9.9774   -6.8166   -5.2207 C.ar      1 <0>        -0.1621
     26 C20        10.3935   -8.0648   -5.6500 C.ar      1 <0>        -0.0712
     27 C21         9.6072   -9.1667   -5.3440 C.ar      1 <0>        -0.1741
     28 C22         8.4401   -8.9880   -4.6249 C.ar      1 <0>         0.1060
     29 N3          8.0697   -7.7889   -4.2234 N.ar      1 <0>        -0.4791
     30 O4          0.9736   -6.4782    1.4429 O.3       1 <0>        -0.3177
     31 C23        -0.0115   -7.1378    2.2407 C.3       1 <0>         0.0256
     32 H1          0.3589    1.6732   -0.7048 H         1 <0>         0.0751
     33 H2         -1.2616    1.4087   -1.3920 H         1 <0>         0.0843
     34 H3         -1.0667    1.6491    0.3608 H         1 <0>         0.0741
     35 H4         -1.4264   -0.7452   -0.1745 H         1 <0>         0.1340
     36 H5         -0.0009   -0.7211   -1.2401 H         1 <0>         0.1352
     37 H6         -0.9741   -2.5384    2.4651 H         1 <0>         0.1469
     38 H7         -0.8316   -4.9905    2.6181 H         1 <0>         0.1454
     39 H8          2.4474   -2.4812   -0.0800 H         1 <0>         0.2064
     40 H9          2.8434   -6.0660   -0.1017 H         1 <0>         0.4327
     41 H10         5.4323   -1.7568   -1.5991 H         1 <0>         0.1946
     42 H11         7.1558   -1.9050   -2.8315 H         1 <0>         0.1344
     43 H12         9.1403   -2.1012   -4.2668 H         1 <0>         0.1367
     44 H13         9.8973   -4.3087   -5.0381 H         1 <0>         0.1311
     45 H14         6.6708   -6.1651   -2.9193 H         1 <0>         0.1389
     46 H15        10.5648   -5.9376   -5.4416 H         1 <0>         0.1390
     47 H16        11.3094   -8.1787   -6.2110 H         1 <0>         0.1383
     48 H17         9.9041  -10.1543   -5.6649 H         1 <0>         0.1376
     49 H18         7.8260   -9.8434   -4.3850 H         1 <0>         0.1590
     50 H19         0.0505   -6.7760    3.2671 H         1 <0>         0.0624
     51 H20        -1.0034   -6.9275    1.8406 H         1 <0>         0.0620
     52 H21         0.1670   -8.2129    2.2230 H         1 <0>         0.1066
@<TRIPOS>BOND
     1    1    2 1
     2    1   32 1
     3    1   33 1
     4    1   34 1
     5    2    3 1
     6    2   35 1
     7    2   36 1
     8    3    4 2
     9    3    5 2
    10    3    6 1
    11    6   11 ar
    12    6    7 ar
    13    7    8 ar
    14    7   37 1
    15    8    9 ar
    16    8   38 1
    17    9   10 ar
    18    9   30 1
    19   10   11 ar
    20   10   12 1
    21   11   39 1
    22   12   13 1
    23   12   40 1
    24   13   17 1
    25   13   14 2
    26   14   15 1
    27   15   16 2
    28   15   41 1
    29   16   17 1
    30   16   18 1
    31   18   23 ar
    32   18   19 ar
    33   19   20 ar
    34   19   42 1
    35   20   21 ar
    36   20   43 1
    37   21   22 ar
    38   21   44 1
    39   22   23 ar
    40   22   24 1
    41   23   45 1
    42   24   29 ar
    43   24   25 ar
    44   25   26 ar
    45   25   46 1
    46   26   27 ar
    47   26   47 1
    48   27   28 ar
    49   27   48 1
    50   28   29 ar
    51   28   49 1
    52   30   31 1
    53   31   50 1
    54   31   51 1
    55   31   52 1
@<TRIPOS>MOLECULE
CHEMBL375306
   41    43     0     0     0
SMALL
USER_CHARGES

@<TRIPOS>ATOM
      1 C1         -0.0175    1.1701    0.0133 C.ar      1 <0>        -0.1987
      2 C2          1.1263    1.9434   -0.0151 C.ar      1 <0>         0.1411
      3 N1          2.3211    1.3842   -0.0157 N.ar      1 <0>        -0.4723
      4 C3          2.4723    0.0689    0.0110 C.ar      1 <0>         0.3654
      5 C4          1.3639   -0.7705    0.0405 C.ar      1 <0>        -0.1817
      6 C5          0.0976   -0.2131    0.0419 C.ar      1 <0>        -0.0050
      7 C6         -1.1292   -1.0878    0.0738 C.3       1 <0>         0.0927
      8 N2         -1.5425   -1.4019   -1.3004 N.3       1 <0>        -0.5305
      9 C7         -1.9853   -0.1922   -2.0065 C.3       1 <0>         0.0344
     10 C8         -2.2338   -0.5275   -3.4809 C.3       1 <0>         0.1347
     11 N3         -3.1644   -1.6643   -3.5511 N.am      1 <0>        -0.6316
     12 C9         -2.8572   -2.8650   -2.7592 C.3       1 <0>         0.1166
     13 C10        -2.5841   -2.4377   -1.3132 C.3       1 <0>         0.0401
     14 C11        -4.2692   -1.6074   -4.3210 C.2       1 <0>         0.7092
     15 O1         -4.4596   -0.6463   -5.0411 O.2       1 <0>        -0.5904
     16 N4         -5.1629   -2.6158   -4.2929 N.am      1 <0>        -0.8681
     17 N5          3.7521   -0.4784    0.0093 N.pl3     1 <0>        -0.5947
     18 C12         4.8545    0.3432   -0.1250 C.2       1 <0>         0.3081
     19 N6          4.8811    1.6447   -0.3457 N.2       1 <0>        -0.5251
     20 C13         6.0126    2.2978   -0.4513 C.2       1 <0>         0.1653
     21 C14         7.1717    1.5472   -0.3187 C.2       1 <0>        -0.2185
     22 S1          6.4820   -0.0760   -0.0389 S.3       1 <0>         0.1853
     23 C15         8.5413    1.9603   -0.3832 C.1       1 <0>         0.3043
     24 N7          9.6278    2.2881   -0.4343 N.1       1 <0>        -0.4022
     25 H1         -0.9915    1.6367    0.0177 H         1 <0>         0.1343
     26 H2          1.0416    3.0198   -0.0374 H         1 <0>         0.1615
     27 H3          1.4900   -1.8429    0.0616 H         1 <0>         0.1376
     28 H4         -0.9027   -2.0121    0.6053 H         1 <0>         0.0917
     29 H5         -1.9363   -0.5631    0.5850 H         1 <0>         0.0529
     30 H6         -2.9078    0.1746   -1.5564 H         1 <0>         0.0420
     31 H7         -1.2142    0.5747   -1.9328 H         1 <0>         0.0946
     32 H8         -2.6709    0.3351   -3.9840 H         1 <0>         0.0986
     33 H9         -1.2918   -0.7954   -3.9594 H         1 <0>         0.0745
     34 H10        -3.7064   -3.5478   -2.7851 H         1 <0>         0.0824
     35 H11        -1.9751   -3.3576   -3.1683 H         1 <0>         0.0806
     36 H12        -2.2474   -3.2993   -0.7367 H         1 <0>         0.0915
     37 H13        -3.4983   -2.0396   -0.8727 H         1 <0>         0.0425
     38 H14        -5.0497   -3.3468   -3.6653 H         1 <0>         0.3954
     39 H15        -5.9193   -2.6106   -4.9001 H         1 <0>         0.4154
     40 H16         3.8699   -1.4367    0.1023 H         1 <0>         0.4387
     41 H17         6.0411    3.3622   -0.6321 H         1 <0>         0.1878
@<TRIPOS>BOND
     1    1    6 ar
     2    1    2 ar
     3    1   25 1
     4    2    3 ar
     5    2   26 1
     6    3    4 ar
     7    4    5 ar
     8    4   17 1
     9    5    6 ar
    10    5   27 1
    11    6    7 1
    12    7    8 1
    13    7   28 1
    14    7   29 1
    15    8   13 1
    16    8    9 1
    17    9   10 1
    18    9   30 1
    19    9   31 1
    20   10   11 1
    21   10   32 1
    22   10   33 1
    23   11   12 1
    24   11   14 am
    25   12   13 1
    26   12   34 1
    27   12   35 1
    28   13   36 1
    29   13   37 1
    30   14   15 2
    31   14   16 am
    32   16   38 1
    33   16   39 1
    34   17   18 1
    35   17   40 1
    36   18   22 1
    37   18   19 2
    38   19   20 1
    39   20   21 2
    40   20   41 1
    41   21   22 1
    42   21   23 1
    43   23   24 3
@<TRIPOS>MOLECULE
CHEMBL375306__1
   42    44     0     0     0
SMALL
USER_CHARGES

@<TRIPOS>ATOM
      1 C1         -0.0308    1.1325    0.0062 C.ar      1 <0>        -0.1936
      2 C2          1.1047    1.9179   -0.0250 C.ar      1 <0>         0.1614
      3 N1          2.3054    1.3715   -0.0263 N.ar      1 <0>        -0.4531
      4 C3          2.4706    0.0580    0.0024 C.ar      1 <0>         0.3894
      5 C4          1.3713   -0.7932    0.0348 C.ar      1 <0>        -0.1915
      6 C5          0.0990   -0.2493    0.0370 C.ar      1 <0>        -0.0786
      7 C6         -1.1183   -1.1369    0.0720 C.3       1 <0>         0.0445
      8 N2         -1.5301   -1.4577   -1.3011 N.4       1 <0>        -0.3818
      9 C7         -1.9529   -0.2281   -1.9832 C.3       1 <0>        -0.0286
     10 C8         -2.2733   -0.5423   -3.4483 C.3       1 <0>         0.1085
     11 N3         -3.2641   -1.6291   -3.4862 N.am      1 <0>        -0.6464
     12 C9         -2.9956   -2.8399   -2.6950 C.3       1 <0>         0.0878
     13 C10        -2.6411   -2.4172   -1.2655 C.3       1 <0>        -0.0217
     14 C11        -4.3861   -1.5185   -4.2246 C.2       1 <0>         0.7137
     15 O1         -4.5475   -0.5519   -4.9443 O.2       1 <0>        -0.5641
     16 N4         -5.3294   -2.4793   -4.1653 N.am      1 <0>        -0.8589
     17 N5          3.7561   -0.4757   -0.0002 N.pl3     1 <0>        -0.5950
     18 C12         4.8495    0.3574   -0.1374 C.2       1 <0>         0.2779
     19 N6          4.8620    1.6587   -0.3604 N.2       1 <0>        -0.5181
     20 C13         5.9863    2.3237   -0.4686 C.2       1 <0>         0.1535
     21 C14         7.1536    1.5857   -0.3362 C.2       1 <0>        -0.1921
     22 S1          6.4815   -0.0443   -0.0528 S.3       1 <0>         0.2144
     23 C15         8.5186    2.0133   -0.4033 C.1       1 <0>         0.2920
     24 N7          9.6014    2.3525   -0.4565 N.1       1 <0>        -0.3806
     25 H1         -1.0097    1.5888    0.0112 H         1 <0>         0.1471
     26 H2          1.0084    2.9934   -0.0490 H         1 <0>         0.1741
     27 H3          1.5087   -1.8641    0.0575 H         1 <0>         0.1461
     28 H4         -0.8813   -2.0579    0.6048 H         1 <0>         0.1446
     29 H5         -1.9303   -0.6200    0.5835 H         1 <0>         0.1440
     30 H6         -2.8415    0.1715   -1.4945 H         1 <0>         0.1370
     31 H7         -1.1502    0.5079   -1.9365 H         1 <0>         0.1461
     32 H8         -2.6835    0.3443   -3.9318 H         1 <0>         0.1395
     33 H9         -1.3651   -0.8565   -3.9626 H         1 <0>         0.0944
     34 H10        -3.8833   -3.4722   -2.6804 H         1 <0>         0.1236
     35 H11        -2.1603   -3.3861   -3.1332 H         1 <0>         0.0998
     36 H12        -2.3455   -3.2943   -0.6899 H         1 <0>         0.1471
     37 H13        -3.5088   -1.9513   -0.7985 H         1 <0>         0.1370
     38 H14        -5.2359   -3.2126   -3.5372 H         1 <0>         0.3965
     39 H15        -6.1017   -2.4376   -4.7506 H         1 <0>         0.4260
     40 H16         3.8842   -1.4325    0.0943 H         1 <0>         0.4414
     41 H17         6.0032    3.3880   -0.6513 H         1 <0>         0.1925
     42 H18        -0.7518   -1.8645   -1.7980 H         1 <0>         0.4240
@<TRIPOS>BOND
     1    1    6 ar
     2    1    2 ar
     3    1   25 1
     4    2    3 ar
     5    2   26 1
     6    3    4 ar
     7    4    5 ar
     8    4   17 1
     9    5    6 ar
    10    5   27 1
    11    6    7 1
    12    7    8 1
    13    7   28 1
    14    7   29 1
    15    8   13 1
    16    8    9 1
    17    8   42 1
    18    9   10 1
    19    9   30 1
    20    9   31 1
    21   10   11 1
    22   10   32 1
    23   10   33 1
    24   11   12 1
    25   11   14 am
    26   12   13 1
    27   12   34 1
    28   12   35 1
    29   13   36 1
    30   13   37 1
    31   14   15 2
    32   14   16 am
    33   16   38 1
    34   16   39 1
    35   17   18 1
    36   17   40 1
    37   18   22 1
    38   18   19 2
    39   19   20 1
    40   20   21 2
    41   20   41 1
    42   21   22 1
    43   21   23 1
    44   23   24 3
@<TRIPOS>MOLECULE
CHEMBL200764
   68    72     0     0     0
SMALL
USER_CHARGES

@<TRIPOS>ATOM
      1 C1         -0.0173    1.4822    0.1293 C.3       1 <0>         0.0193
      2 O1          0.0193    0.0537    0.1228 O.3       1 <0>        -0.2998
      3 C2         -1.1751   -0.5939    0.1015 C.ar      1 <0>         0.1230
      4 C3         -2.3357    0.1289    0.0819 C.ar      1 <0>        -0.1486
      5 C4         -3.5633   -0.5388    0.0599 C.ar      1 <0>        -0.1518
      6 C5         -3.5956   -1.9586    0.0583 C.ar      1 <0>         0.1892
      7 C6         -2.3900   -2.6743    0.0788 C.ar      1 <0>        -0.1761
      8 C7         -1.2035   -1.9973    0.0942 C.ar      1 <0>         0.1632
      9 O2         -0.0359   -2.6914    0.1080 O.3       1 <0>        -0.2930
     10 C8         -0.1287   -4.1174    0.0996 C.3       1 <0>         0.0553
     11 C9          1.2774   -4.7201    0.1174 C.3       1 <0>        -0.1486
     12 C10         1.1781   -6.2468    0.1084 C.3       1 <0>        -0.0020
     13 N1          2.5282   -6.8255    0.1256 N.4       1 <0>        -0.3935
     14 C11         3.1799   -6.5665    1.4349 C.3       1 <0>        -0.0093
     15 C12         4.2738   -7.6612    1.5091 C.3       1 <0>        -0.1458
     16 C13         3.5834   -8.8842    0.8628 C.3       1 <0>        -0.1456
     17 C14         2.4540   -8.2970   -0.0038 C.3       1 <0>        -0.0082
     18 N2         -4.7837   -2.5744    0.0366 N.ar      1 <0>        -0.5134
     19 C15        -5.8970   -1.8779    0.0173 C.ar      1 <0>         0.3267
     20 N3         -5.9215   -0.5575    0.0179 N.ar      1 <0>        -0.5291
     21 C16        -4.7991    0.1580    0.0384 C.ar      1 <0>         0.3718
     22 N4         -4.8360    1.5184    0.0388 N.2       1 <0>        -0.3904
     23 C17        -4.7553    2.1726   -1.0850 C.2       1 <0>         0.1746
     24 C18        -4.7553    1.4672   -2.4318 C.3       1 <0>        -0.1620
     25 C19        -5.7842    2.1655   -3.2954 C.2       1 <0>         0.4100
     26 C20        -5.8933    3.6363   -3.2460 C.2       1 <0>         0.1172
     27 C21        -5.3716    4.3475   -2.2163 C.2       1 <0>        -0.2862
     28 C22        -4.6636    3.6584   -1.1306 C.2       1 <0>         0.4422
     29 O3         -4.0241    4.2793   -0.3024 O.2       1 <0>        -0.3938
     30 O4         -6.5263    4.2882   -4.2485 O.3       1 <0>        -0.2788
     31 C23        -6.6030    5.7117   -4.1500 C.3       1 <0>         0.1039
     32 C24        -7.3371    6.2592   -5.3469 C.ar      1 <0>         0.1139
     33 C25        -7.8133    5.3916   -6.3118 C.ar      1 <0>        -0.1508
     34 C26        -8.4873    5.9055   -7.4089 C.ar      1 <0>        -0.0718
     35 C27        -8.6578    7.2791   -7.4947 C.ar      1 <0>        -0.1660
     36 C28        -8.1539    8.0842   -6.4911 C.ar      1 <0>         0.1076
     37 N5         -7.5223    7.5599   -5.4587 N.ar      1 <0>        -0.4773
     38 O5         -6.5091    1.5244   -4.0188 O.2       1 <0>        -0.3816
     39 H1          1.0006    1.8717    0.1467 H         1 <0>         0.1115
     40 H2         -0.5267    1.8367   -0.7668 H         1 <0>         0.0603
     41 H3         -0.5537    1.8279    1.0130 H         1 <0>         0.0641
     42 H4         -2.3039    1.2085    0.0836 H         1 <0>         0.1514
     43 H5         -2.3994   -3.7543    0.0778 H         1 <0>         0.1561
     44 H6         -0.6782   -4.4509    0.9799 H         1 <0>         0.0784
     45 H7         -0.6519   -4.4421   -0.7998 H         1 <0>         0.0790
     46 H8          1.8269   -4.3866   -0.7629 H         1 <0>         0.1006
     47 H9          1.8006   -4.3953    1.0169 H         1 <0>         0.1000
     48 H10         0.6286   -6.5804    0.9888 H         1 <0>         0.1340
     49 H11         0.6549   -6.5716   -0.7910 H         1 <0>         0.1348
     50 H12         3.6281   -5.5730    1.4517 H         1 <0>         0.1366
     51 H13         2.4651   -6.6810    2.2498 H         1 <0>         0.1348
     52 H14         5.1532   -7.3672    0.9362 H         1 <0>         0.0986
     53 H15         4.5396   -7.8712    2.5452 H         1 <0>         0.1172
     54 H16         4.2908   -9.4332    0.2412 H         1 <0>         0.1057
     55 H17         3.1699   -9.5358    1.6325 H         1 <0>         0.1043
     56 H18         1.4880   -8.6530    0.3542 H         1 <0>         0.1315
     57 H19         2.5965   -8.5859   -1.0451 H         1 <0>         0.1333
     58 H20        -6.8367   -2.4101   -0.0002 H         1 <0>         0.2076
     59 H21        -3.7700    1.5434   -2.8917 H         1 <0>         0.1524
     60 H22        -5.4802    5.4218   -2.1933 H         1 <0>         0.1720
     61 H23        -7.1372    5.9847   -3.2400 H         1 <0>         0.1004
     62 H24        -5.5963    6.1285   -4.1193 H         1 <0>         0.1015
     63 H25        -7.6620    4.3269   -6.2126 H         1 <0>         0.1444
     64 H26        -8.8701    5.2518   -8.1785 H         1 <0>         0.1397
     65 H27        -9.1776    7.7141   -8.3355 H         1 <0>         0.1409
     66 H28        -8.2825    9.1548   -6.5505 H         1 <0>         0.1640
     67 H29        -5.0254    0.4191   -2.3029 H         1 <0>         0.1219
     68 H30         3.0828   -6.4380   -0.6230 H         1 <0>         0.4284
@<TRIPOS>BOND
     1    1    2 1
     2    1   39 1
     3    1   40 1
     4    1   41 1
     5    2    3 1
     6    3    8 ar
     7    3    4 ar
     8    4    5 ar
     9    4   42 1
    10    5   21 ar
    11    5    6 ar
    12    6    7 ar
    13    6   18 ar
    14    7    8 ar
    15    7   43 1
    16    8    9 1
    17    9   10 1
    18   10   11 1
    19   10   44 1
    20   10   45 1
    21   11   12 1
    22   11   46 1
    23   11   47 1
    24   12   13 1
    25   12   48 1
    26   12   49 1
    27   13   17 1
    28   13   14 1
    29   13   68 1
    30   14   15 1
    31   14   50 1
    32   14   51 1
    33   15   16 1
    34   15   52 1
    35   15   53 1
    36   16   17 1
    37   16   54 1
    38   16   55 1
    39   17   56 1
    40   17   57 1
    41   18   19 ar
    42   19   20 ar
    43   19   58 1
    44   20   21 ar
    45   21   22 1
    46   22   23 2
    47   23   28 1
    48   23   24 1
    49   24   59 1
    50   24   67 1
    51   24   25 1
    52   25   38 2
    53   25   26 1
    54   26   30 1
    55   26   27 2
    56   27   28 1
    57   27   60 1
    58   28   29 2
    59   30   31 1
    60   31   32 1
    61   31   61 1
    62   31   62 1
    63   32   37 ar
    64   32   33 ar
    65   33   34 ar
    66   33   63 1
    67   34   35 ar
    68   34   64 1
    69   35   36 ar
    70   35   65 1
    71   36   37 ar
    72   36   66 1
@<TRIPOS>MOLECULE
CHEMBL200764__1
   68    72     0     0     0
SMALL
USER_CHARGES

@<TRIPOS>ATOM
      1 C1         -0.0166    1.4759    0.0632 C.3       1 <0>         0.0204
      2 O1          0.0181    0.0473    0.0566 O.3       1 <0>        -0.2992
      3 C2         -1.1774   -0.5987    0.0518 C.ar      1 <0>         0.1219
      4 C3         -2.3371    0.1256    0.0479 C.ar      1 <0>        -0.1509
      5 C4         -3.5659   -0.5404    0.0430 C.ar      1 <0>        -0.1525
      6 C5         -3.6000   -1.9602    0.0422 C.ar      1 <0>         0.1899
      7 C6         -2.3952   -2.6775    0.0463 C.ar      1 <0>        -0.1740
      8 C7         -1.2077   -2.0021    0.0452 C.ar      1 <0>         0.1601
      9 O2         -0.0410   -2.6977    0.0432 O.3       1 <0>        -0.2935
     10 C8         -0.1358   -4.1235    0.0365 C.3       1 <0>         0.0553
     11 C9          1.2697   -4.7281    0.0352 C.3       1 <0>        -0.1484
     12 C10         1.1682   -6.2547    0.0279 C.3       1 <0>        -0.0020
     13 N1          2.5177   -6.8352    0.0266 N.4       1 <0>        -0.3935
     14 C11         3.1877   -6.5767    1.3269 C.3       1 <0>        -0.0092
     15 C12         4.2810   -7.6728    1.3864 C.3       1 <0>        -0.1457
     16 C13         3.5803   -8.8950    0.7499 C.3       1 <0>        -0.1456
     17 C14         2.4398   -8.3066   -0.1013 C.3       1 <0>        -0.0083
     18 N2         -4.7891   -2.5744    0.0370 N.ar      1 <0>        -0.5150
     19 C15        -5.9017   -1.8765    0.0328 C.ar      1 <0>         0.3303
     20 N3         -5.9244   -0.5560    0.0333 N.ar      1 <0>        -0.5117
     21 C16        -4.8009    0.1580    0.0383 C.ar      1 <0>         0.3724
     22 N4         -4.8360    1.5184    0.0388 N.2       1 <0>        -0.3922
     23 C17        -4.7553    2.1726   -1.0850 C.2       1 <0>         0.1736
     24 C18        -4.6553    3.6889   -1.1313 C.3       1 <0>        -0.1086
     25 C19        -3.4986    4.0268   -2.0479 C.2       1 <0>         0.4042
     26 C20        -3.3042    3.2481   -3.2861 C.2       1 <0>         0.1142
     27 C21        -3.8877    2.0360   -3.4553 C.2       1 <0>        -0.2918
     28 C22        -4.7490    1.4812   -2.4041 C.2       1 <0>         0.3841
     29 O3         -5.4334    0.4957   -2.6060 O.2       1 <0>        -0.3976
     30 O4         -2.5284    3.7540   -4.2725 O.3       1 <0>        -0.2782
     31 C23        -2.3743    2.9581   -5.4494 C.3       1 <0>         0.1051
     32 C24        -1.4840    3.6778   -6.4294 C.ar      1 <0>         0.1131
     33 C25        -0.9623    4.9142   -6.0980 C.ar      1 <0>        -0.1496
     34 C26        -0.1444    5.5677   -7.0067 C.ar      1 <0>        -0.0711
     35 C27         0.1194    4.9505   -8.2201 C.ar      1 <0>        -0.1654
     36 C28        -0.4378    3.7133   -8.4815 C.ar      1 <0>         0.1067
     37 N5         -1.2073    3.1183   -7.5909 N.ar      1 <0>        -0.4788
     38 O5         -2.7418    4.9263   -1.7682 O.2       1 <0>        -0.3797
     39 H1          1.0020    1.8640    0.0665 H         1 <0>         0.1118
     40 H2         -0.5377    1.8308   -0.8259 H         1 <0>         0.0566
     41 H3         -0.5403    1.8225    0.9541 H         1 <0>         0.0632
     42 H4         -2.3039    1.2051    0.0489 H         1 <0>         0.1460
     43 H5         -2.4060   -3.7575    0.0457 H         1 <0>         0.1557
     44 H6         -0.6735   -4.4561    0.9243 H         1 <0>         0.0784
     45 H7         -0.6716   -4.4478   -0.8556 H         1 <0>         0.0785
     46 H8          1.8075   -4.3955   -0.8527 H         1 <0>         0.1003
     47 H9          1.8056   -4.4038    0.9272 H         1 <0>         0.0999
     48 H10         0.6305   -6.5873    0.9158 H         1 <0>         0.1342
     49 H11         0.6324   -6.5790   -0.8642 H         1 <0>         0.1348
     50 H12         3.6373   -5.5838    1.3372 H         1 <0>         0.1364
     51 H13         2.4839   -6.6901    2.1515 H         1 <0>         0.1348
     52 H14         5.1529   -7.3801    0.8013 H         1 <0>         0.0985
     53 H15         4.5608   -7.8829    2.4187 H         1 <0>         0.1172
     54 H16         4.2783   -9.4451    0.1188 H         1 <0>         0.1057
     55 H17         3.1765   -9.5459    1.5254 H         1 <0>         0.1043
     56 H18         1.4783   -8.6612    0.2700 H         1 <0>         0.1316
     57 H19         2.5677   -8.5959   -1.1444 H         1 <0>         0.1332
     58 H20        -6.8422   -2.4074    0.0282 H         1 <0>         0.2059
     59 H21        -5.5791    4.1108   -1.5271 H         1 <0>         0.1574
     60 H22        -3.7155    1.4767   -4.3631 H         1 <0>         0.1637
     61 H23        -1.9244    2.0013   -5.1846 H         1 <0>         0.0956
     62 H24        -3.3507    2.7874   -5.9030 H         1 <0>         0.1004
     63 H25        -1.1893    5.3654   -5.1434 H         1 <0>         0.1455
     64 H26         0.2771    6.5348   -6.7751 H         1 <0>         0.1408
     65 H27         0.7521    5.4309   -8.9518 H         1 <0>         0.1412
     66 H28        -0.2372    3.2260   -9.4242 H         1 <0>         0.1634
     67 H29        -4.4662    4.0801   -0.1317 H         1 <0>         0.1476
     68 H30         3.0625   -6.4485   -0.7295 H         1 <0>         0.4283
@<TRIPOS>BOND
     1    1    2 1
     2    1   39 1
     3    1   40 1
     4    1   41 1
     5    2    3 1
     6    3    8 ar
     7    3    4 ar
     8    4    5 ar
     9    4   42 1
    10    5   21 ar
    11    5    6 ar
    12    6    7 ar
    13    6   18 ar
    14    7    8 ar
    15    7   43 1
    16    8    9 1
    17    9   10 1
    18   10   11 1
    19   10   44 1
    20   10   45 1
    21   11   12 1
    22   11   46 1
    23   11   47 1
    24   12   13 1
    25   12   48 1
    26   12   49 1
    27   13   17 1
    28   13   14 1
    29   13   68 1
    30   14   15 1
    31   14   50 1
    32   14   51 1
    33   15   16 1
    34   15   52 1
    35   15   53 1
    36   16   17 1
    37   16   54 1
    38   16   55 1
    39   17   56 1
    40   17   57 1
    41   18   19 ar
    42   19   20 ar
    43   19   58 1
    44   20   21 ar
    45   21   22 1
    46   22   23 2
    47   23   28 1
    48   23   24 1
    49   24   59 1
    50   24   67 1
    51   24   25 1
    52   25   38 2
    53   25   26 1
    54   26   30 1
    55   26   27 2
    56   27   28 1
    57   27   60 1
    58   28   29 2
    59   30   31 1
    60   31   32 1
    61   31   61 1
    62   31   62 1
    63   32   37 ar
    64   32   33 ar
    65   33   34 ar
    66   33   63 1
    67   34   35 ar
    68   34   64 1
    69   35   36 ar
    70   35   65 1
    71   36   37 ar
    72   36   66 1
@<TRIPOS>MOLECULE
CHEMBL403706
   53    56     0     0     0
SMALL
USER_CHARGES

@<TRIPOS>ATOM
      1 C1          0.0170    1.2355   -0.1124 C.3       1 <0>        -0.1176
      2 C2          0.1794   -0.1604    0.4319 C.ar      1 <0>        -0.1027
      3 C3          0.3258   -1.2258   -0.4374 C.ar      1 <0>        -0.1063
      4 C4          0.4750   -2.5065    0.0523 C.ar      1 <0>        -0.0880
      5 C5          0.4790   -2.7306    1.4326 C.ar      1 <0>        -0.0466
      6 C6          0.3316   -1.6537    2.3097 C.ar      1 <0>        -0.1068
      7 C7          0.1873   -0.3709    1.8057 C.ar      1 <0>         0.1538
      8 N1          0.0444    0.7124    2.6803 N.am      1 <0>        -0.6742
      9 C8         -0.5254    0.5327    3.8883 C.2       1 <0>         0.7037
     10 O1         -0.8454   -0.5834    4.2495 O.2       1 <0>        -0.5496
     11 N2         -0.7406    1.5899    4.6960 N.am      1 <0>        -0.6809
     12 C9         -1.4278    1.4199    5.9031 C.ar      1 <0>         0.1640
     13 C10        -1.0989    2.1966    7.0065 C.ar      1 <0>        -0.1135
     14 C11        -1.7793    2.0268    8.1961 C.ar      1 <0>        -0.0973
     15 C12        -2.7872    1.0844    8.2895 C.ar      1 <0>        -0.0881
     16 C13        -3.1167    0.3093    7.1930 C.ar      1 <0>        -0.1615
     17 C14        -2.4438    0.4784    5.9985 C.ar      1 <0>        -0.0712
     18 C15        -4.2154   -0.7167    7.2993 C.3       1 <0>         0.5087
     19 F1         -4.7469   -0.6984    8.5933 F         1 <0>        -0.1761
     20 F2         -5.2236   -0.4176    6.3767 F         1 <0>        -0.1759
     21 F3         -3.6955   -1.9866    7.0266 F         1 <0>        -0.1726
     22 C16         0.6376   -4.0968    1.9594 C.2       1 <0>         0.2364
     23 N3          0.6041   -5.0202    1.1063 N.2       1 <0>        -0.5056
     24 C17         0.7670   -6.3500    1.1103 C.ar      1 <0>        -0.0809
     25 C18         0.6258   -7.0241   -0.1295 C.ar      1 <0>         0.4924
     26 N4          0.7839   -8.3386   -0.1819 N.ar      1 <0>        -0.6084
     27 C19         1.0716   -9.0298    0.9030 C.ar      1 <0>         0.3806
     28 N5          1.2103   -8.4521    2.0754 N.ar      1 <0>        -0.6065
     29 C20         1.0665   -7.1310    2.2293 C.ar      1 <0>         0.4339
     30 N6          1.2158   -6.6193    3.4942 N.pl3     1 <0>        -0.7131
     31 C21         1.7763   -5.3230    3.8021 C.3       1 <0>         0.1317
     32 C22         0.8226   -4.2063    3.4317 C.3       1 <0>        -0.1570
     33 N7          0.3240   -6.3130   -1.2782 N.pl3     1 <0>        -0.8136
     34 H1          0.9979    1.6958   -0.2305 H         1 <0>         0.0729
     35 H2         -0.4829    1.1922   -1.0801 H         1 <0>         0.0741
     36 H3         -0.5815    1.8280    0.5796 H         1 <0>         0.0621
     37 H4          0.3229   -1.0545   -1.5037 H         1 <0>         0.1292
     38 H5          0.5883   -3.3360   -0.6300 H         1 <0>         0.1290
     39 H6          0.3337   -1.8196    3.3769 H         1 <0>         0.1581
     40 H7          0.3556    1.5926    2.4169 H         1 <0>         0.4098
     41 H8         -0.4191    2.4687    4.4405 H         1 <0>         0.4123
     42 H9         -0.3116    2.9324    6.9343 H         1 <0>         0.1370
     43 H10        -1.5237    2.6302    9.0546 H         1 <0>         0.1417
     44 H11        -3.3178    0.9534    9.2210 H         1 <0>         0.1413
     45 H12        -2.7049   -0.1240    5.1410 H         1 <0>         0.1477
     46 H13         1.1964  -10.0999    0.8265 H         1 <0>         0.1999
     47 H14         0.9227   -7.1690    4.2377 H         1 <0>         0.4061
     48 H15         1.9903   -5.2709    4.8696 H         1 <0>         0.1005
     49 H16         2.7050   -5.1943    3.2461 H         1 <0>         0.0660
     50 H17         1.2148   -3.2629    3.8115 H         1 <0>         0.1015
     51 H18        -0.1434   -4.4009    3.8975 H         1 <0>         0.0942
     52 H19         0.2086   -5.3507   -1.2366 H         1 <0>         0.4176
     53 H20         0.2281   -6.7768   -2.1246 H         1 <0>         0.4077
@<TRIPOS>BOND
     1    1    2 1
     2    1   34 1
     3    1   35 1
     4    1   36 1
     5    2    7 ar
     6    2    3 ar
     7    3    4 ar
     8    3   37 1
     9    4    5 ar
    10    4   38 1
    11    5    6 ar
    12    5   22 1
    13    6    7 ar
    14    6   39 1
    15    7    8 1
    16    8    9 am
    17    8   40 1
    18    9   10 2
    19    9   11 am
    20   11   12 1
    21   11   41 1
    22   12   17 ar
    23   12   13 ar
    24   13   14 ar
    25   13   42 1
    26   14   15 ar
    27   14   43 1
    28   15   16 ar
    29   15   44 1
    30   16   17 ar
    31   16   18 1
    32   17   45 1
    33   18   19 1
    34   18   20 1
    35   18   21 1
    36   22   32 1
    37   22   23 2
    38   23   24 1
    39   24   29 ar
    40   24   25 ar
    41   25   26 ar
    42   25   33 1
    43   26   27 ar
    44   27   28 ar
    45   27   46 1
    46   28   29 ar
    47   29   30 1
    48   30   31 1
    49   30   47 1
    50   31   32 1
    51   31   48 1
    52   31   49 1
    53   32   50 1
    54   32   51 1
    55   33   52 1
    56   33   53 1
@<TRIPOS>MOLECULE
CHEMBL243908
   50    53     0     0     0
SMALL
USER_CHARGES

@<TRIPOS>ATOM
      1 C1         11.6800    1.9669    9.1803 C.3       1 <0>         0.0463
      2 O1         10.3309    2.2436    9.5617 O.3       1 <0>        -0.3325
      3 C2          9.3935    1.3442    9.1947 C.2       1 <0>         0.6415
      4 O2          9.7150    0.3514    8.5672 O.2       1 <0>        -0.6176
      5 N1          8.1127    1.5435    9.5201 N.2       1 <0>        -0.6394
      6 C3          7.1775    0.7135    9.0736 C.2       1 <0>         0.6708
      7 N2          7.4075   -0.4288    8.3714 N.pl3     1 <0>        -0.6096
      8 H1          8.2775   -0.7722    8.1144 H         1 <0>         0.4533
      9 C4          6.1807   -1.0203    8.0856 C.ar      1 <0>         0.0978
     10 C5          5.8241   -2.1774    7.4089 C.ar      1 <0>        -0.1176
     11 C6          4.4868   -2.5171    7.2817 C.ar      1 <0>         0.1056
     12 C7          3.5044   -1.7021    7.8294 C.ar      1 <0>        -0.1033
     13 C8          3.8542   -0.5493    8.5035 C.ar      1 <0>        -0.0780
     14 C9          5.1911   -0.2028    8.6358 C.ar      1 <0>         0.0867
     15 N3          5.8380    0.8673    9.2507 N.pl3     1 <0>        -0.5847
     16 O3          4.1354   -3.6508    6.6188 O.3       1 <0>        -0.2496
     17 C10         4.3195   -4.8415    7.2485 C.ar      1 <0>         0.1064
     18 C11         3.8883   -6.0166    6.6499 C.ar      1 <0>        -0.1190
     19 C12         4.0751   -7.2262    7.2891 C.ar      1 <0>        -0.0790
     20 C13         4.6946   -7.2665    8.5310 C.ar      1 <0>         0.1325
     21 C14         5.1260   -6.0903    9.1296 C.ar      1 <0>        -0.1041
     22 C15         4.9438   -4.8818    8.4870 C.ar      1 <0>        -0.1743
     23 N4          4.8840   -8.4938    9.1803 N.am      1 <0>        -0.6793
     24 C16         5.1458   -9.6032    8.4613 C.2       1 <0>         0.7053
     25 O4          5.3169   -9.5229    7.2601 O.2       1 <0>        -0.5516
     26 N5          5.2181  -10.8017    9.0736 N.am      1 <0>        -0.6815
     27 C17         5.6025  -11.9355    8.3491 C.ar      1 <0>         0.1699
     28 C18         6.5474  -11.8272    7.3369 C.ar      1 <0>        -0.1032
     29 C19         6.9250  -12.9476    6.6234 C.ar      1 <0>        -0.0917
     30 C20         6.3632  -14.1771    6.9153 C.ar      1 <0>        -0.1045
     31 C21         5.4217  -14.2888    7.9229 C.ar      1 <0>        -0.0712
     32 C22         5.0444  -13.1719    8.6445 C.ar      1 <0>        -0.1185
     33 Br1         4.6558  -15.9720    8.3179 Br        1 <0>        -0.0433
     34 H2         11.7447    1.9031    8.0941 H         1 <0>         0.0593
     35 H3         12.3296    2.7664    9.5366 H         1 <0>         0.1053
     36 H4         11.9948    1.0201    9.6192 H         1 <0>         0.0594
     37 H5          5.4070    1.5973    9.7221 H         1 <0>         0.4502
     38 H6          6.5867   -2.8117    6.9818 H         1 <0>         0.1449
     39 H7          2.4634   -1.9711    7.7274 H         1 <0>         0.1509
     40 H8          3.0877    0.0824    8.9275 H         1 <0>         0.1487
     41 H9          3.4061   -5.9851    5.6841 H         1 <0>         0.1395
     42 H10         3.7390   -8.1408    6.8232 H         1 <0>         0.1441
     43 H11         5.6076   -6.1211   10.0958 H         1 <0>         0.1306
     44 H12         5.2832   -3.9673    8.9505 H         1 <0>         0.1338
     45 H13         4.8266   -8.5448   10.1473 H         1 <0>         0.4095
     46 H14         5.0036  -10.8783   10.0165 H         1 <0>         0.4109
     47 H15         6.9862  -10.8673    7.1077 H         1 <0>         0.1412
     48 H16         7.6597  -12.8636    5.8363 H         1 <0>         0.1376
     49 H17         6.6597  -15.0517    6.3554 H         1 <0>         0.1356
     50 H18         4.3127  -13.2600    9.4340 H         1 <0>         0.1362
@<TRIPOS>BOND
     1    1    2 1
     2    1   34 1
     3    1   35 1
     4    1   36 1
     5    2    3 1
     6    3    4 2
     7    3    5 1
     8    5    6 2
     9    6   15 1
    10    6    7 1
    11    7    9 1
    12    7    8 1
    13    9   10 ar
    14    9   14 ar
    15   10   11 ar
    16   10   38 1
    17   11   12 ar
    18   11   16 1
    19   12   13 ar
    20   12   39 1
    21   13   14 ar
    22   13   40 1
    23   14   15 1
    24   15   37 1
    25   16   17 1
    26   17   22 ar
    27   17   18 ar
    28   18   19 ar
    29   18   41 1
    30   19   20 ar
    31   19   42 1
    32   20   21 ar
    33   20   23 1
    34   21   22 ar
    35   21   43 1
    36   22   44 1
    37   23   24 am
    38   23   45 1
    39   24   25 2
    40   24   26 am
    41   26   27 1
    42   26   46 1
    43   27   32 ar
    44   27   28 ar
    45   28   29 ar
    46   28   47 1
    47   29   30 ar
    48   29   48 1
    49   30   31 ar
    50   30   49 1
    51   31   32 ar
    52   31   33 1
    53   32   50 1
@<TRIPOS>MOLECULE
CHEMBL243908__1
   50    53     0     0     0
SMALL
USER_CHARGES

@<TRIPOS>ATOM
      1 C1          0.7214  -16.0756    3.5710 C.3       1 <0>         0.0464
      2 O1          0.4221  -15.0770    4.5484 O.3       1 <0>        -0.3325
      3 C2          1.0783  -13.9019    4.4447 C.2       1 <0>         0.6418
      4 O2          1.8833  -13.7312    3.5471 O.2       1 <0>        -0.6181
      5 N1          0.8444  -12.9258    5.3271 N.2       1 <0>        -0.6397
      6 C3          1.5615  -11.8091    5.2873 C.2       1 <0>         0.6709
      7 N2          1.4912  -10.7947    6.1910 N.pl3     1 <0>        -0.5849
      8 H1          0.9123  -10.7658    6.9688 H         1 <0>         0.4499
      9 C4          2.3926   -9.8058    5.8087 C.ar      1 <0>         0.1009
     10 C5          2.7326   -8.5755    6.3517 C.ar      1 <0>        -0.1147
     11 C6          3.6913   -7.7899    5.7324 C.ar      1 <0>         0.1029
     12 C7          4.3113   -8.2315    4.5705 C.ar      1 <0>        -0.1005
     13 C8          3.9762   -9.4549    4.0259 C.ar      1 <0>        -0.0811
     14 C9          3.0177  -10.2476    4.6406 C.ar      1 <0>         0.0838
     15 N3          2.4868  -11.5003    4.3398 N.pl3     1 <0>        -0.6092
     16 O3          4.0258   -6.5839    6.2632 O.3       1 <0>        -0.2489
     17 C10         4.8124   -6.5706    7.3720 C.ar      1 <0>         0.1061
     18 C11         5.2570   -5.3637    7.8923 C.ar      1 <0>        -0.1190
     19 C12         6.0560   -5.3495    9.0184 C.ar      1 <0>        -0.0790
     20 C13         6.4144   -6.5433    9.6301 C.ar      1 <0>         0.1326
     21 C14         5.9693   -7.7508    9.1089 C.ar      1 <0>        -0.1042
     22 C15         5.1657   -7.7635    7.9860 C.ar      1 <0>        -0.1744
     23 N4          7.2256   -6.5296   10.7726 N.am      1 <0>        -0.6794
     24 C16         7.1094   -5.5303   11.6695 C.2       1 <0>         0.7054
     25 O4          6.2346   -4.6958   11.5401 O.2       1 <0>        -0.5517
     26 N5          7.9629   -5.4561   12.7099 N.am      1 <0>        -0.6816
     27 C17         7.7733   -4.4884   13.7028 C.ar      1 <0>         0.1697
     28 C18         6.4879   -4.1168   14.0758 C.ar      1 <0>        -0.1031
     29 C19         6.3035   -3.1616   15.0560 C.ar      1 <0>        -0.0917
     30 C20         7.3968   -2.5744   15.6660 C.ar      1 <0>        -0.1044
     31 C21         8.6785   -2.9420   15.2970 C.ar      1 <0>        -0.0712
     32 C22         8.8693   -3.9020   14.3210 C.ar      1 <0>        -0.1185
     33 Br1        10.1705   -2.1358   16.1337 Br        1 <0>        -0.0433
     34 H2          1.7810  -16.3265    3.6205 H         1 <0>         0.0592
     35 H3          0.1272  -16.9676    3.7693 H         1 <0>         0.1051
     36 H4          0.4843  -15.6945    2.5777 H         1 <0>         0.0597
     37 H5          2.7335  -12.0557    3.5838 H         1 <0>         0.4536
     38 H6          2.2509   -8.2306    7.2547 H         1 <0>         0.1469
     39 H7          5.0578   -7.6154    4.0913 H         1 <0>         0.1501
     40 H8          4.4597   -9.7947    3.1219 H         1 <0>         0.1468
     41 H9          4.9784   -4.4351    7.4163 H         1 <0>         0.1394
     42 H10         6.4023   -4.4100    9.4232 H         1 <0>         0.1440
     43 H11         6.2481   -8.6797    9.5841 H         1 <0>         0.1306
     44 H12         4.8157   -8.7025    7.5832 H         1 <0>         0.1341
     45 H13         7.8707   -7.2392   10.9180 H         1 <0>         0.4096
     46 H14         8.7087   -6.0734   12.7705 H         1 <0>         0.4109
     47 H15         5.6334   -4.5743   13.5995 H         1 <0>         0.1412
     48 H16         5.3042   -2.8725   15.3461 H         1 <0>         0.1376
     49 H17         7.2499   -1.8271   16.4317 H         1 <0>         0.1356
     50 H18         9.8699   -4.1921   14.0362 H         1 <0>         0.1362
@<TRIPOS>BOND
     1    1    2 1
     2    1   34 1
     3    1   35 1
     4    1   36 1
     5    2    3 1
     6    3    4 2
     7    3    5 1
     8    5    6 2
     9    6   15 1
    10    6    7 1
    11    7    9 1
    12    7    8 1
    13    9   10 ar
    14    9   14 ar
    15   10   11 ar
    16   10   38 1
    17   11   12 ar
    18   11   16 1
    19   12   13 ar
    20   12   39 1
    21   13   14 ar
    22   13   40 1
    23   14   15 1
    24   15   37 1
    25   16   17 1
    26   17   22 ar
    27   17   18 ar
    28   18   19 ar
    29   18   41 1
    30   19   20 ar
    31   19   42 1
    32   20   21 ar
    33   20   23 1
    34   21   22 ar
    35   21   43 1
    36   22   44 1
    37   23   24 am
    38   23   45 1
    39   24   25 2
    40   24   26 am
    41   26   27 1
    42   26   46 1
    43   27   32 ar
    44   27   28 ar
    45   28   29 ar
    46   28   47 1
    47   29   30 ar
    48   29   48 1
    49   30   31 ar
    50   30   49 1
    51   31   32 ar
    52   31   33 1
    53   32   50 1
@<TRIPOS>MOLECULE
CHEMBL270745
   56    60     0     0     0
SMALL
USER_CHARGES

@<TRIPOS>ATOM
      1 C1          2.0396    0.1497   -0.3851 C.3       1 <0>         0.0146
      2 O1          0.8117   -0.5370   -0.1343 O.3       1 <0>        -0.2860
      3 C2          0.3257   -0.4893    1.1347 C.ar      1 <0>         0.1359
      4 C3          1.0091    0.2000    2.0945 C.ar      1 <0>        -0.1370
      5 C4          0.5073    0.2495    3.4037 C.ar      1 <0>        -0.0884
      6 C5          1.1868    0.9535    4.4230 C.ar      1 <0>         0.2830
      7 C6          0.6305    0.9579    5.6900 C.ar      1 <0>        -0.2640
      8 C7         -0.5606    0.2817    5.9217 C.ar      1 <0>         0.2270
      9 N1         -1.1837   -0.3692    4.9676 N.ar      1 <0>        -0.4803
     10 C8         -0.7028   -0.4152    3.7195 C.ar      1 <0>         0.1820
     11 C9         -1.3828   -1.1165    2.7101 C.ar      1 <0>        -0.2355
     12 C10        -0.8754   -1.1438    1.4431 C.ar      1 <0>         0.2169
     13 O2         -1.5403   -1.8188    0.4690 O.3       1 <0>        -0.2772
     14 C11        -2.7583   -2.4656    0.8435 C.3       1 <0>         0.0115
     15 O3          2.3486    1.6044    4.1677 O.3       1 <0>        -0.2119
     16 C12         2.8983    2.3433    5.1660 C.ar      1 <0>         0.0647
     17 C13         3.5603    1.6991    6.2166 C.ar      1 <0>        -0.1357
     18 C14         4.1204    2.4149    7.2298 C.ar      1 <0>        -0.0713
     19 C15         4.0344    3.8140    7.2225 C.ar      1 <0>        -0.0567
     20 C16         4.6059    4.5926    8.2603 C.ar      1 <0>        -0.0713
     21 C17         4.4780    5.9736    8.1797 C.ar      1 <0>        -0.1174
     22 C18         3.8040    6.5399    7.1010 C.ar      1 <0>         0.1445
     23 N2          3.2808    5.8066    6.1498 N.ar      1 <0>        -0.4462
     24 C19         3.3654    4.4731    6.1609 C.ar      1 <0>         0.1350
     25 C20         2.8019    3.7052    5.1274 C.ar      1 <0>        -0.0678
     26 C21         5.3145    3.9558    9.3913 C.2       1 <0>         0.5648
     27 O4          5.5048    2.7552    9.3907 O.2       1 <0>        -0.5028
     28 N3          5.7492    4.7065   10.4227 N.am      1 <0>        -0.6578
     29 C22         6.3389    4.0944   11.5335 C.ar      1 <0>         0.1362
     30 C23         6.1328    4.6136   12.8051 C.ar      1 <0>        -0.1249
     31 C24         6.7159    4.0069   13.9001 C.ar      1 <0>        -0.0902
     32 C25         7.5054    2.8830   13.7313 C.ar      1 <0>        -0.0424
     33 C26         7.7128    2.3638   12.4653 C.ar      1 <0>        -0.0914
     34 C27         7.1271    2.9628   11.3675 C.ar      1 <0>        -0.1049
     35 Cl1         8.2374    2.1232   15.1099 Cl        1 <0>        -0.0598
     36 H1          2.8247   -0.2680    0.2451 H         1 <0>         0.0674
     37 H2          2.3141    0.0323   -1.4334 H         1 <0>         0.1189
     38 H3          1.9165    1.2087   -0.1582 H         1 <0>         0.0673
     39 H4          1.9315    0.7044    1.8474 H         1 <0>         0.1731
     40 H5          1.1206    1.4846    6.4955 H         1 <0>         0.1844
     41 H6         -0.9855    0.2915    6.9146 H         1 <0>         0.2129
     42 H7         -2.3066   -1.6289    2.9347 H         1 <0>         0.1717
     43 H8         -3.1860   -2.9659   -0.0252 H         1 <0>         0.1217
     44 H9         -2.5548   -3.2005    1.6224 H         1 <0>         0.0695
     45 H10        -3.4630   -1.7237    1.2192 H         1 <0>         0.0695
     46 H11         3.6276    0.6212    6.2239 H         1 <0>         0.1445
     47 H12         4.6285    1.9070    8.0363 H         1 <0>         0.1836
     48 H13         4.8984    6.6039    8.9493 H         1 <0>         0.1525
     49 H14         3.7096    7.6144    7.0470 H         1 <0>         0.1800
     50 H15         2.2915    4.1898    4.3082 H         1 <0>         0.1560
     51 H16         5.6531    5.6713   10.3947 H         1 <0>         0.4151
     52 H17         5.5173    5.4911   12.9373 H         1 <0>         0.1381
     53 H18         6.5559    4.4103   14.8891 H         1 <0>         0.1421
     54 H19         8.3300    1.4869   12.3363 H         1 <0>         0.1404
     55 H20         7.2857    2.5547   10.3802 H         1 <0>         0.1482
     56 H21        -2.0132   -0.8286    5.1721 H         1 <0>         0.4479
@<TRIPOS>BOND
     1    1    2 1
     2    1   36 1
     3    1   37 1
     4    1   38 1
     5    2    3 1
     6    3   12 ar
     7    3    4 ar
     8    4    5 ar
     9    4   39 1
    10    5   10 ar
    11    5    6 ar
    12    6    7 ar
    13    6   15 1
    14    7    8 ar
    15    7   40 1
    16    8    9 ar
    17    8   41 1
    18    9   10 ar
    19    9   56 1
    20   10   11 ar
    21   11   12 ar
    22   11   42 1
    23   12   13 1
    24   13   14 1
    25   14   43 1
    26   14   44 1
    27   14   45 1
    28   15   16 1
    29   16   25 ar
    30   16   17 ar
    31   17   18 ar
    32   17   46 1
    33   18   19 ar
    34   18   47 1
    35   19   24 ar
    36   19   20 ar
    37   20   21 ar
    38   20   26 1
    39   21   22 ar
    40   21   48 1
    41   22   23 ar
    42   22   49 1
    43   23   24 ar
    44   24   25 ar
    45   25   50 1
    46   26   27 2
    47   26   28 am
    48   28   29 1
    49   28   51 1
    50   29   34 ar
    51   29   30 ar
    52   30   31 ar
    53   30   52 1
    54   31   32 ar
    55   31   53 1
    56   32   33 ar
    57   32   35 1
    58   33   34 ar
    59   33   54 1
    60   34   55 1
@<TRIPOS>MOLECULE
CHEMBL233225
   55    59     0     0     0
SMALL
USER_CHARGES

@<TRIPOS>ATOM
      1 C1         -0.0127    1.3801   -0.1997 C.ar      1 <0>        -0.0852
      2 C2          1.1753    2.0844   -0.1979 C.ar      1 <0>        -0.1130
      3 C3          2.3786    1.4129   -0.0231 C.ar      1 <0>         0.1874
      4 C4          2.3827    0.0346    0.1493 C.ar      1 <0>        -0.1463
      5 C5          1.1911   -0.6635    0.1464 C.ar      1 <0>        -0.0836
      6 C6         -0.0051    0.0080   -0.0279 C.ar      1 <0>        -0.1305
      7 C7         -1.3035   -0.7571   -0.0300 C.3       1 <0>        -0.0941
      8 C8         -1.6355   -1.1942   -1.4581 C.3       1 <0>        -0.0028
      9 N1         -2.9011   -1.9401   -1.4602 N.4       1 <0>        -0.3952
     10 C9         -4.0322   -1.0304   -1.1451 C.3       1 <0>        -0.0078
     11 C10        -5.2597   -1.7770   -1.7249 C.3       1 <0>        -0.1460
     12 C11        -4.7009   -2.4061   -3.0218 C.3       1 <0>        -0.1456
     13 C12        -3.1768   -2.4730   -2.8121 C.3       1 <0>        -0.0085
     14 N2          3.5831    2.1227   -0.0212 N.pl3     1 <0>        -0.6375
     15 C13         3.6284    3.4093    0.4921 C.ar      1 <0>         0.5611
     16 N3          2.5508    3.9074    1.0812 N.ar      1 <0>        -0.5492
     17 C14         2.5532    5.1318    1.5842 C.ar      1 <0>         0.2078
     18 C15         3.7013    5.8998    1.4910 C.ar      1 <0>        -0.1870
     19 C16         4.8228    5.3472    0.8638 C.ar      1 <0>         0.2907
     20 N4          4.7483    4.1063    0.3859 N.ar      1 <0>        -0.5416
     21 C17         6.0759    6.1279    0.7384 C.ar      1 <0>        -0.0593
     22 C18         6.0163    7.5126    0.5416 C.ar      1 <0>        -0.1136
     23 C19         7.1615    8.2427    0.4252 C.ar      1 <0>        -0.0743
     24 C20         8.4047    7.6075    0.5023 C.ar      1 <0>        -0.0831
     25 C21         9.7894    8.0754    0.4211 C.2       1 <0>        -0.2087
     26 C22        10.5780    6.9975    0.5664 C.2       1 <0>         0.0648
     27 N5          9.8115    5.8778    0.7340 N.pl3     1 <0>        -0.5933
     28 H1         10.1565    4.9798    0.8586 H         1 <0>         0.4179
     29 C23         8.4761    6.2153    0.6999 C.ar      1 <0>         0.0808
     30 C24         7.3038    5.4819    0.8226 C.ar      1 <0>        -0.0653
     31 Cl1         3.7477    7.5106    2.1367 Cl        1 <0>        -0.0208
     32 H2         -0.9490    1.9021   -0.3311 H         1 <0>         0.1261
     33 H3          1.1688    3.1559   -0.3325 H         1 <0>         0.1398
     34 H4          3.3166   -0.4905    0.2851 H         1 <0>         0.1312
     35 H5          1.1936   -1.7352    0.2800 H         1 <0>         0.1275
     36 H6         -1.2077   -1.6369    0.6063 H         1 <0>         0.0925
     37 H7         -2.1017   -0.1193    0.3496 H         1 <0>         0.0926
     38 H8         -1.7312   -0.3144   -2.0944 H         1 <0>         0.1299
     39 H9         -0.8373   -1.8321   -1.8378 H         1 <0>         0.1302
     40 H10        -4.1338   -0.9018   -0.0675 H         1 <0>         0.1355
     41 H11        -3.8999   -0.0671   -1.6378 H         1 <0>         0.1337
     42 H12        -5.6010   -2.5506   -1.0370 H         1 <0>         0.0978
     43 H13        -6.0649   -1.0780   -1.9512 H         1 <0>         0.1161
     44 H14        -5.1077   -3.4075   -3.1624 H         1 <0>         0.1046
     45 H15        -4.9374   -1.7770   -3.8799 H         1 <0>         0.1032
     46 H16        -2.6717   -1.8636   -3.5615 H         1 <0>         0.1300
     47 H17        -2.8376   -3.5066   -2.8800 H         1 <0>         0.1315
     48 H18         4.3871    1.7147   -0.3791 H         1 <0>         0.4283
     49 H19         1.6690    5.5275    2.0618 H         1 <0>         0.1838
     50 H20         5.0572    8.0054    0.4814 H         1 <0>         0.1362
     51 H21         7.1087    9.3107    0.2731 H         1 <0>         0.1312
     52 H22        10.1153    9.0942    0.2722 H         1 <0>         0.1515
     53 H23        11.6578    7.0131    0.5525 H         1 <0>         0.1753
     54 H24         7.3455    4.4141    0.9785 H         1 <0>         0.1270
     55 H25        -2.8624   -2.6936   -0.7904 H         1 <0>         0.4263
@<TRIPOS>BOND
     1    1    6 ar
     2    1    2 ar
     3    1   32 1
     4    2    3 ar
     5    2   33 1
     6    3    4 ar
     7    3   14 1
     8    4    5 ar
     9    4   34 1
    10    5    6 ar
    11    5   35 1
    12    6    7 1
    13    7    8 1
    14    7   36 1
    15    7   37 1
    16    8    9 1
    17    8   38 1
    18    8   39 1
    19    9   13 1
    20    9   10 1
    21    9   55 1
    22   10   11 1
    23   10   40 1
    24   10   41 1
    25   11   12 1
    26   11   42 1
    27   11   43 1
    28   12   13 1
    29   12   44 1
    30   12   45 1
    31   13   46 1
    32   13   47 1
    33   14   15 1
    34   14   48 1
    35   15   20 ar
    36   15   16 ar
    37   16   17 ar
    38   17   18 ar
    39   17   49 1
    40   18   19 ar
    41   18   31 1
    42   19   20 ar
    43   19   21 1
    44   21   30 ar
    45   21   22 ar
    46   22   23 ar
    47   22   50 1
    48   23   24 ar
    49   23   51 1
    50   24   29 ar
    51   24   25 1
    52   25   26 2
    53   25   52 1
    54   26   27 1
    55   26   53 1
    56   27   28 1
    57   27   29 1
    58   29   30 ar
    59   30   54 1
@<TRIPOS>MOLECULE
CHEMBL426009
   65    70     0     0     0
SMALL
USER_CHARGES

@<TRIPOS>ATOM
      1 C1         -0.0178    1.4648    0.0101 C.3       1 <0>        -0.0459
      2 N1          0.0021   -0.0041    0.0020 N.4       1 <0>        -0.3885
      3 C2         -1.3761   -0.5122    0.0107 C.3       1 <0>        -0.0023
      4 C3         -1.3560   -2.0421   -0.0167 C.3       1 <0>         0.0248
      5 N2         -0.6244   -2.5407    1.1564 N.3       1 <0>        -0.5343
      6 C4          0.7499   -2.0201    1.1745 C.3       1 <0>         0.0187
      7 C5          0.7125   -0.4904    1.1921 C.3       1 <0>        -0.0023
      8 C6         -0.6316   -4.0091    1.1963 C.3       1 <0>         0.0982
      9 C7         -0.0938   -4.4782    2.5236 C.ar      1 <0>        -0.0829
     10 C8          1.2623   -4.7055    2.6779 C.ar      1 <0>        -0.1166
     11 C9          1.7629   -5.1349    3.8890 C.ar      1 <0>        -0.0925
     12 C10         0.8977   -5.3413    4.9667 C.ar      1 <0>        -0.0235
     13 C11        -0.4668   -5.1086    4.8001 C.ar      1 <0>        -0.0673
     14 C12        -0.9565   -4.6753    3.5879 C.ar      1 <0>        -0.0725
     15 C13        -1.1304   -5.4146    6.1204 C.3       1 <0>        -0.0109
     16 C14        -0.0193   -5.8412    7.0489 C.2       1 <0>        -0.2183
     17 C15         1.1508   -5.7901    6.3537 C.2       1 <0>         0.0932
     18 N3          2.1468   -6.1787    7.2054 N.pl3     1 <0>        -0.4530
     19 H1          3.0904   -6.2401    6.9891 H         1 <0>         0.4424
     20 N4          1.5658   -6.4719    8.4450 N.2       1 <0>        -0.2510
     21 C16         0.2680   -6.2702    8.3544 C.2       1 <0>         0.1608
     22 C17        -0.7212   -6.4632    9.4449 C.2       1 <0>        -0.0527
     23 C18        -0.5590   -7.4782   10.3747 C.2       1 <0>        -0.1034
     24 C19        -1.4951   -7.6194   11.3635 C.2       1 <0>        -0.0543
     25 S1         -2.6378   -6.3001   10.9903 S.3       1 <0>         0.1153
     26 C20        -1.8082   -5.6388    9.5549 C.2       1 <0>        -0.1455
     27 C21        -1.5448   -8.5793   12.4250 C.1       1 <0>        -0.0854
     28 C22        -1.5855   -9.3663   13.2952 C.1       1 <0>        -0.1343
     29 C23        -1.6366  -10.3530   14.3864 C.3       1 <0>         0.2411
     30 N5         -2.8289  -10.1157   15.2039 N.pl3     1 <0>        -0.7500
     31 C24        -3.0938  -10.9319   16.3060 C.ar      1 <0>         0.2120
     32 C25        -2.2246  -11.9654   16.6317 C.ar      1 <0>        -0.1984
     33 C26        -2.4893  -12.7702   17.7223 C.ar      1 <0>        -0.0721
     34 C27        -3.6181  -12.5484   18.4896 C.ar      1 <0>        -0.1756
     35 C28        -4.4854  -11.5204   18.1682 C.ar      1 <0>        -0.0722
     36 C29        -4.2238  -10.7083   17.0823 C.ar      1 <0>        -0.1923
     37 H2          1.0047    1.8421    0.0024 H         1 <0>         0.1240
     38 H3         -0.5450    1.8259   -0.8730 H         1 <0>         0.1245
     39 H4         -0.5280    1.8163    0.9069 H         1 <0>         0.1232
     40 H5         -1.8832   -0.1716    0.9134 H         1 <0>         0.1379
     41 H6         -1.9060   -0.1400   -0.8661 H         1 <0>         0.1364
     42 H7         -2.3783   -2.4196    0.0047 H         1 <0>         0.1252
     43 H8         -0.8610   -2.3831   -0.9260 H         1 <0>         0.0616
     44 H9          1.2641   -2.3816    2.0650 H         1 <0>         0.1265
     45 H10         1.2796   -2.3607    0.2848 H         1 <0>         0.0612
     46 H11         1.7310   -0.1020    1.1912 H         1 <0>         0.1352
     47 H12         0.1947   -0.1499    2.0888 H         1 <0>         0.1376
     48 H13        -1.6519   -4.3710    1.0694 H         1 <0>         0.1000
     49 H14        -0.0057   -4.3975    0.3929 H         1 <0>         0.0585
     50 H15         1.9320   -4.5463    1.8456 H         1 <0>         0.1246
     51 H16         2.8220   -5.3116    4.0043 H         1 <0>         0.1261
     52 H17        -2.0141   -4.4930    3.4667 H         1 <0>         0.1328
     53 H18        -1.6240   -4.5237    6.5088 H         1 <0>         0.1014
     54 H19        -1.8517   -6.2230    6.0005 H         1 <0>         0.1046
     55 H20         0.2890   -8.1448   10.3200 H         1 <0>         0.1438
     56 H21        -2.0917   -4.8030    8.9324 H         1 <0>         0.1944
     57 H22        -1.6784  -11.3578   13.9659 H         1 <0>         0.0917
     58 H23        -0.7456  -10.2554   15.0065 H         1 <0>         0.0910
     59 H24        -3.4344   -9.3918   14.9798 H         1 <0>         0.4032
     60 H25        -1.3432  -12.1396   16.0325 H         1 <0>         0.1210
     61 H26        -1.8140  -13.5740   17.9761 H         1 <0>         0.1220
     62 H27        -3.8231  -13.1797   19.3416 H         1 <0>         0.1194
     63 H28        -5.3662  -11.3499   18.7695 H         1 <0>         0.1219
     64 H29        -4.8992   -9.9028   16.8344 H         1 <0>         0.1192
     65 H30         0.4748   -0.3293   -0.8280 H         1 <0>         0.4224
@<TRIPOS>BOND
     1    1    2 1
     2    1   37 1
     3    1   38 1
     4    1   39 1
     5    2    7 1
     6    2    3 1
     7    2   65 1
     8    3    4 1
     9    3   40 1
    10    3   41 1
    11    4    5 1
    12    4   42 1
    13    4   43 1
    14    5    6 1
    15    5    8 1
    16    6    7 1
    17    6   44 1
    18    6   45 1
    19    7   46 1
    20    7   47 1
    21    8    9 1
    22    8   48 1
    23    8   49 1
    24    9   14 ar
    25    9   10 ar
    26   10   11 ar
    27   10   50 1
    28   11   12 ar
    29   11   51 1
    30   12   17 1
    31   12   13 ar
    32   13   14 ar
    33   13   15 1
    34   14   52 1
    35   15   16 1
    36   15   53 1
    37   15   54 1
    38   16   21 1
    39   16   17 2
    40   17   18 1
    41   18   19 1
    42   18   20 1
    43   20   21 2
    44   21   22 1
    45   22   26 2
    46   22   23 1
    47   23   24 2
    48   23   55 1
    49   24   25 1
    50   24   27 1
    51   25   26 1
    52   26   56 1
    53   27   28 3
    54   28   29 1
    55   29   30 1
    56   29   57 1
    57   29   58 1
    58   30   31 1
    59   30   59 1
    60   31   36 ar
    61   31   32 ar
    62   32   33 ar
    63   32   60 1
    64   33   34 ar
    65   33   61 1
    66   34   35 ar
    67   34   62 1
    68   35   36 ar
    69   35   63 1
    70   36   64 1
@<TRIPOS>MOLECULE
CHEMBL426009__1
   65    70     0     0     0
SMALL
USER_CHARGES

@<TRIPOS>ATOM
      1 C1         -0.0178    1.4648    0.0101 C.3       1 <0>        -0.0458
      2 N1          0.0021   -0.0041    0.0020 N.4       1 <0>        -0.3884
      3 C2         -1.3761   -0.5122    0.0107 C.3       1 <0>        -0.0023
      4 C3         -1.3560   -2.0421   -0.0167 C.3       1 <0>         0.0248
      5 N2         -0.6244   -2.5407    1.1564 N.3       1 <0>        -0.5344
      6 C4          0.7499   -2.0201    1.1745 C.3       1 <0>         0.0185
      7 C5          0.7125   -0.4904    1.1921 C.3       1 <0>        -0.0025
      8 C6         -0.6316   -4.0091    1.1963 C.3       1 <0>         0.0989
      9 C7         -0.0938   -4.4782    2.5236 C.ar      1 <0>        -0.0836
     10 C8          1.2620   -4.7055    2.6780 C.ar      1 <0>        -0.1191
     11 C9          1.7607   -5.1345    3.8904 C.ar      1 <0>        -0.0832
     12 C10         0.8957   -5.3405    4.9666 C.ar      1 <0>        -0.0045
     13 C11        -0.4666   -5.1093    4.8021 C.ar      1 <0>        -0.0687
     14 C12        -0.9558   -4.6753    3.5874 C.ar      1 <0>        -0.0763
     15 C13        -1.1468   -5.4115    6.1149 C.3       1 <0>        -0.0003
     16 C14        -0.0552   -5.8414    7.0633 C.2       1 <0>        -0.2339
     17 C15         1.1578   -5.7919    6.3569 C.2       1 <0>         0.0862
     18 N3          2.1219   -6.1666    7.1764 N.2       1 <0>        -0.2495
     19 H1          2.0356   -6.7641    9.2097 H         1 <0>         0.4475
     20 N4          1.5557   -6.4642    8.4219 N.pl3     1 <0>        -0.4571
     21 C16         0.2108   -6.2575    8.3325 C.2       1 <0>         0.1736
     22 C17        -0.7787   -6.4499    9.4165 C.2       1 <0>        -0.0769
     23 C18        -0.5289   -5.9750   10.6962 C.2       1 <0>        -0.1224
     24 C19        -1.4722   -6.1750   11.6669 C.2       1 <0>        -0.0468
     25 S1         -2.7485   -7.0505   10.7781 S.3       1 <0>         0.1287
     26 C20        -1.9634   -7.0960    9.1759 C.2       1 <0>        -0.1376
     27 C21        -1.4426   -5.7830   13.0439 C.1       1 <0>        -0.0917
     28 C22        -1.4183   -5.4616   14.1728 C.1       1 <0>        -0.1256
     29 C23        -1.3878   -5.0587   15.5882 C.3       1 <0>         0.2398
     30 N5         -2.6242   -5.4896   16.2454 N.pl3     1 <0>        -0.7502
     31 C24        -2.8261   -5.2180   17.6005 C.ar      1 <0>         0.2111
     32 C25        -1.8581   -4.5343   18.3252 C.ar      1 <0>        -0.1982
     33 C26        -2.0612   -4.2670   19.6648 C.ar      1 <0>        -0.0723
     34 C27        -3.2264   -4.6795   20.2849 C.ar      1 <0>        -0.1744
     35 C28        -4.1921   -5.3602   19.5664 C.ar      1 <0>        -0.0719
     36 C29        -3.9979   -5.6258   18.2251 C.ar      1 <0>        -0.1913
     37 H2          1.0047    1.8421    0.0024 H         1 <0>         0.1240
     38 H3         -0.5450    1.8259   -0.8730 H         1 <0>         0.1242
     39 H4         -0.5280    1.8163    0.9069 H         1 <0>         0.1230
     40 H5         -1.8832   -0.1716    0.9134 H         1 <0>         0.1377
     41 H6         -1.9060   -0.1400   -0.8661 H         1 <0>         0.1359
     42 H7         -2.3783   -2.4196    0.0047 H         1 <0>         0.1247
     43 H8         -0.8610   -2.3831   -0.9260 H         1 <0>         0.0614
     44 H9          1.2641   -2.3816    2.0650 H         1 <0>         0.1277
     45 H10         1.2796   -2.3607    0.2848 H         1 <0>         0.0613
     46 H11         1.7310   -0.1020    1.1912 H         1 <0>         0.1353
     47 H12         0.1947   -0.1499    2.0888 H         1 <0>         0.1375
     48 H13        -1.6519   -4.3710    1.0694 H         1 <0>         0.0991
     49 H14        -0.0057   -4.3975    0.3929 H         1 <0>         0.0582
     50 H15         1.9324   -4.5469    1.8463 H         1 <0>         0.1243
     51 H16         2.8197   -5.3112    4.0069 H         1 <0>         0.1298
     52 H17        -2.0134   -4.4932    3.4656 H         1 <0>         0.1309
     53 H18        -1.6430   -4.5184    6.4945 H         1 <0>         0.0966
     54 H19        -1.8708   -6.2160    5.9856 H         1 <0>         0.0965
     55 H20         0.3920   -5.4579   10.9215 H         1 <0>         0.1402
     56 H21        -2.3277   -7.5242    8.2538 H         1 <0>         0.1978
     57 H22        -0.5337   -5.5240   16.0802 H         1 <0>         0.0920
     58 H23        -1.2994   -3.9743   15.6555 H         1 <0>         0.0917
     59 H24        -3.3027   -5.9635   15.7393 H         1 <0>         0.4031
     60 H25        -0.9476   -4.2126   17.8417 H         1 <0>         0.1205
     61 H26        -1.3090   -3.7356   20.2289 H         1 <0>         0.1222
     62 H27        -3.3823   -4.4698   21.3328 H         1 <0>         0.1199
     63 H28        -5.1009   -5.6809   20.0538 H         1 <0>         0.1226
     64 H29        -4.7545   -6.1536   17.6635 H         1 <0>         0.1197
     65 H30         0.4748   -0.3293   -0.8280 H         1 <0>         0.4222
@<TRIPOS>BOND
     1    1    2 1
     2    1   37 1
     3    1   38 1
     4    1   39 1
     5    2    7 1
     6    2    3 1
     7    2   65 1
     8    3    4 1
     9    3   40 1
    10    3   41 1
    11    4    5 1
    12    4   42 1
    13    4   43 1
    14    5    6 1
    15    5    8 1
    16    6    7 1
    17    6   44 1
    18    6   45 1
    19    7   46 1
    20    7   47 1
    21    8    9 1
    22    8   48 1
    23    8   49 1
    24    9   14 ar
    25    9   10 ar
    26   10   11 ar
    27   10   50 1
    28   11   12 ar
    29   11   51 1
    30   12   13 ar
    31   12   17 1
    32   13   14 ar
    33   13   15 1
    34   14   52 1
    35   15   53 1
    36   15   54 1
    37   15   16 1
    38   16   17 1
    39   16   21 2
    40   17   18 2
    41   18   20 1
    42   19   20 1
    43   20   21 1
    44   21   22 1
    45   22   26 2
    46   22   23 1
    47   23   24 2
    48   23   55 1
    49   24   25 1
    50   24   27 1
    51   25   26 1
    52   26   56 1
    53   27   28 3
    54   28   29 1
    55   29   30 1
    56   29   57 1
    57   29   58 1
    58   30   31 1
    59   30   59 1
    60   31   36 ar
    61   31   32 ar
    62   32   33 ar
    63   32   60 1
    64   33   34 ar
    65   33   61 1
    66   34   35 ar
    67   34   62 1
    68   35   36 ar
    69   35   63 1
    70   36   64 1
@<TRIPOS>MOLECULE
CHEMBL382730
   69    73     0     0     0
SMALL
USER_CHARGES

@<TRIPOS>ATOM
      1 C1          0.2481    1.4955    0.0307 C.3       1 <0>        -0.0473
      2 N1          0.2314    0.0266    0.0217 N.4       1 <0>        -0.3862
      3 C2         -1.1583   -0.4455    0.0390 C.3       1 <0>        -0.0038
      4 C3         -1.1834   -1.9727   -0.0520 C.3       1 <0>        -0.1427
      5 C4         -0.4275   -2.5623    1.1423 C.3       1 <0>        -0.0977
      6 C5          0.9989   -2.0050    1.1566 C.3       1 <0>        -0.1439
      7 C6          0.9430   -0.4765    1.2028 C.3       1 <0>        -0.0065
      8 C7         -0.3801   -4.0863    1.0160 C.3       1 <0>         0.0543
      9 O1          0.2221   -4.6427    2.1864 O.3       1 <0>        -0.2951
     10 C8          0.3414   -5.9950    2.2351 C.ar      1 <0>         0.1637
     11 C9         -0.1031   -6.7491    1.1863 C.ar      1 <0>        -0.1766
     12 C10         0.0197   -8.1450    1.2357 C.ar      1 <0>         0.1898
     13 C11         0.6054   -8.7532    2.3777 C.ar      1 <0>        -0.1527
     14 C12         1.0520   -7.9581    3.4369 C.ar      1 <0>        -0.1491
     15 C13         0.9251   -6.5988    3.3599 C.ar      1 <0>         0.1219
     16 O2          1.3642   -5.8240    4.3863 O.3       1 <0>        -0.3004
     17 C14         1.9489   -6.4970    5.5031 C.3       1 <0>         0.0196
     18 C15         0.7165  -10.1675    2.3987 C.ar      1 <0>         0.3714
     19 N2          0.2656  -10.8471    1.3466 N.ar      1 <0>        -0.5297
     20 C16        -0.2714  -10.2329    0.3080 C.ar      1 <0>         0.3264
     21 N3         -0.3997   -8.9279    0.2345 N.ar      1 <0>        -0.5131
     22 N4          1.2686  -10.8107    3.4634 N.2       1 <0>        -0.3917
     23 C17         0.5302  -11.1223    4.4906 C.2       1 <0>         0.1750
     24 C18        -0.9757  -10.9136    4.4957 C.3       1 <0>        -0.1624
     25 C19        -1.5993  -12.2120    4.9617 C.2       1 <0>         0.4073
     26 C20        -0.9669  -12.9656    6.0616 C.2       1 <0>         0.1183
     27 C21         0.3198  -12.7381    6.4232 C.2       1 <0>        -0.2948
     28 C22         1.1080  -11.7111    5.7307 C.2       1 <0>         0.4432
     29 O3          2.1904  -11.3542    6.1565 O.2       1 <0>        -0.3979
     30 O4         -1.6857  -13.9020    6.7228 O.3       1 <0>        -0.2735
     31 C23        -1.0242  -14.6015    7.7788 C.3       1 <0>         0.0916
     32 C24        -1.9740  -15.5966    8.3943 C.ar      1 <0>        -0.1081
     33 C25        -2.7793  -15.2200    9.4528 C.ar      1 <0>        -0.0923
     34 C26        -3.6505  -16.1328   10.0174 C.ar      1 <0>        -0.1227
     35 C27        -3.7166  -17.4221    9.5232 C.ar      1 <0>        -0.1021
     36 C28        -2.9119  -17.7985    8.4641 C.ar      1 <0>        -0.1217
     37 C29        -2.0438  -16.8845    7.8968 C.ar      1 <0>        -0.0913
     38 O5         -2.6060  -12.6273    4.4381 O.2       1 <0>        -0.3806
     39 H1          1.2796    1.8472    0.0112 H         1 <0>         0.1243
     40 H2         -0.2801    1.8702   -0.8460 H         1 <0>         0.1242
     41 H3         -0.2427    1.8590    0.9335 H         1 <0>         0.1220
     42 H4         -1.6375   -0.1292    0.9655 H         1 <0>         0.1307
     43 H5         -1.6958   -0.0225   -0.8097 H         1 <0>         0.1344
     44 H6         -2.2160   -2.3214   -0.0372 H         1 <0>         0.1176
     45 H7         -0.7046   -2.2901   -0.9784 H         1 <0>         0.0934
     46 H8         -0.9354   -2.2876    2.0667 H         1 <0>         0.1035
     47 H9          1.5261   -2.3767    2.0352 H         1 <0>         0.1213
     48 H10         1.5229   -2.3230    0.2553 H         1 <0>         0.0893
     49 H11         1.9569   -0.0765    1.2133 H         1 <0>         0.1327
     50 H12         0.4191   -0.1596    2.1045 H         1 <0>         0.1301
     51 H13        -1.3933   -4.4738    0.9096 H         1 <0>         0.0792
     52 H14         0.2076   -4.3602    0.1398 H         1 <0>         0.0745
     53 H15        -0.5468   -6.2730    0.3244 H         1 <0>         0.1562
     54 H16         1.4979   -8.4140    4.3085 H         1 <0>         0.1505
     55 H17         1.2179   -7.1766    5.9411 H         1 <0>         0.0600
     56 H18         2.8187   -7.0637    5.1711 H         1 <0>         0.0634
     57 H19         2.2559   -5.7638    6.2490 H         1 <0>         0.1107
     58 H20        -0.6213  -10.8319   -0.5198 H         1 <0>         0.2074
     59 H21        -1.2373  -10.1079    5.1816 H         1 <0>         0.1515
     60 H22         0.7663  -13.3153    7.2194 H         1 <0>         0.1696
     61 H23        -0.1566  -15.1265    7.3792 H         1 <0>         0.0862
     62 H24        -0.7004  -13.8904    8.5387 H         1 <0>         0.0873
     63 H25        -2.7277  -14.2127    9.8389 H         1 <0>         0.1254
     64 H26        -4.2792  -15.8388   10.8449 H         1 <0>         0.1281
     65 H27        -4.3967  -18.1355    9.9648 H         1 <0>         0.1275
     66 H28        -2.9633  -18.8059    8.0782 H         1 <0>         0.1285
     67 H29        -1.4178  -17.1774    7.0669 H         1 <0>         0.1260
     68 H30        -1.3214  -10.6730    3.4904 H         1 <0>         0.1213
     69 H31         0.6881   -0.3088   -0.8131 H         1 <0>         0.4247
@<TRIPOS>BOND
     1    1    2 1
     2    1   39 1
     3    1   40 1
     4    1   41 1
     5    2    7 1
     6    2    3 1
     7    2   69 1
     8    3    4 1
     9    3   42 1
    10    3   43 1
    11    4    5 1
    12    4   44 1
    13    4   45 1
    14    5    6 1
    15    5    8 1
    16    5   46 1
    17    6    7 1
    18    6   47 1
    19    6   48 1
    20    7   49 1
    21    7   50 1
    22    8    9 1
    23    8   51 1
    24    8   52 1
    25    9   10 1
    26   10   15 ar
    27   10   11 ar
    28   11   12 ar
    29   11   53 1
    30   12   21 ar
    31   12   13 ar
    32   13   14 ar
    33   13   18 ar
    34   14   15 ar
    35   14   54 1
    36   15   16 1
    37   16   17 1
    38   17   55 1
    39   17   56 1
    40   17   57 1
    41   18   19 ar
    42   18   22 1
    43   19   20 ar
    44   20   21 ar
    45   20   58 1
    46   22   23 2
    47   23   28 1
    48   23   24 1
    49   24   59 1
    50   24   68 1
    51   24   25 1
    52   25   38 2
    53   25   26 1
    54   26   30 1
    55   26   27 2
    56   27   28 1
    57   27   60 1
    58   28   29 2
    59   30   31 1
    60   31   32 1
    61   31   61 1
    62   31   62 1
    63   32   37 ar
    64   32   33 ar
    65   33   34 ar
    66   33   63 1
    67   34   35 ar
    68   34   64 1
    69   35   36 ar
    70   35   65 1
    71   36   37 ar
    72   36   66 1
    73   37   67 1
@<TRIPOS>MOLECULE
CHEMBL382730__1
   69    73     0     0     0
SMALL
USER_CHARGES

@<TRIPOS>ATOM
      1 C1          0.1307    1.4982    0.0777 C.3       1 <0>        -0.0473
      2 N1          0.1307    0.0293    0.0623 N.4       1 <0>        -0.3862
      3 C2         -1.2537   -0.4586    0.0684 C.3       1 <0>        -0.0037
      4 C3         -1.2608   -1.9856   -0.0294 C.3       1 <0>        -0.1428
      5 C4         -0.5059   -2.5718    1.1672 C.3       1 <0>        -0.0975
      6 C5          0.9139   -1.9985    1.1932 C.3       1 <0>        -0.1438
      7 C6          0.8404   -0.4710    1.2457 C.3       1 <0>        -0.0064
      8 C7         -0.4405   -4.0946    1.0346 C.3       1 <0>         0.0544
      9 O1          0.1605   -4.6494    2.2065 O.3       1 <0>        -0.2957
     10 C8          0.2948   -6.0004    2.2501 C.ar      1 <0>         0.1606
     11 C9         -0.1344   -6.7549    1.1951 C.ar      1 <0>        -0.1747
     12 C10         0.0039   -8.1495    1.2393 C.ar      1 <0>         0.1903
     13 C11         0.5891   -8.7560    2.3824 C.ar      1 <0>        -0.1536
     14 C12         1.0198   -7.9606    3.4479 C.ar      1 <0>        -0.1512
     15 C13         0.8780   -6.6025    3.3760 C.ar      1 <0>         0.1206
     16 O2          1.3016   -5.8274    4.4086 O.3       1 <0>        -0.2998
     17 C14         1.8867   -6.4986    5.5262 C.3       1 <0>         0.0205
     18 C15         0.7162  -10.1691    2.3979 C.ar      1 <0>         0.3726
     19 N2          0.2798  -10.8491    1.3400 N.ar      1 <0>        -0.5125
     20 C16        -0.2575  -10.2364    0.3006 C.ar      1 <0>         0.3300
     21 N3         -0.4001   -8.9327    0.2320 N.ar      1 <0>        -0.5151
     22 N4          1.2686  -10.8107    3.4634 N.2       1 <0>        -0.3937
     23 C17         0.5302  -11.1223    4.4906 C.2       1 <0>         0.1743
     24 C18         1.1209  -11.7174    5.7588 C.3       1 <0>        -0.1092
     25 C19         0.5754  -10.9124    6.9192 C.2       1 <0>         0.4021
     26 C20        -0.8379  -10.4885    6.9058 C.2       1 <0>         0.1143
     27 C21        -1.5596  -10.4775    5.7581 C.2       1 <0>        -0.2991
     28 C22        -0.9442  -10.9120    4.4980 C.2       1 <0>         0.3845
     29 O3         -1.6152  -11.0952    3.4997 O.2       1 <0>        -0.4003
     30 O4         -1.4256  -10.1035    8.0622 O.3       1 <0>        -0.2731
     31 C23        -2.7955   -9.7029    7.9918 C.3       1 <0>         0.0927
     32 C24        -3.2757   -9.3113    9.3655 C.ar      1 <0>        -0.1077
     33 C25        -3.8314  -10.2625   10.2006 C.ar      1 <0>        -0.0909
     34 C26        -4.2718   -9.9032   11.4607 C.ar      1 <0>        -0.1206
     35 C27        -4.1561   -8.5930   11.8859 C.ar      1 <0>        -0.1017
     36 C28        -3.5995   -7.6421   11.0512 C.ar      1 <0>        -0.1226
     37 C29        -3.1552   -8.0022    9.7927 C.ar      1 <0>        -0.0931
     38 O5          1.2908  -10.6200    7.8481 O.2       1 <0>        -0.3795
     39 H1          1.1583    1.8617    0.0665 H         1 <0>         0.1243
     40 H2         -0.3961    1.8708   -0.8008 H         1 <0>         0.1242
     41 H3         -0.3700    1.8521    0.9789 H         1 <0>         0.1219
     42 H4         -1.7424   -0.1519    0.9932 H         1 <0>         0.1305
     43 H5         -1.7904   -0.0380   -0.7819 H         1 <0>         0.1344
     44 H6         -2.2895   -2.3460   -0.0228 H         1 <0>         0.1175
     45 H7         -0.7725   -2.2934   -0.9540 H         1 <0>         0.0935
     46 H8         -1.0229   -2.3070    2.0895 H         1 <0>         0.1031
     47 H9          1.4396   -2.3681    2.0736 H         1 <0>         0.1212
     48 H10         1.4473   -2.3065    0.2939 H         1 <0>         0.0895
     49 H11         1.8496   -0.0596    1.2645 H         1 <0>         0.1327
     50 H12         0.3070   -0.1640    2.1454 H         1 <0>         0.1299
     51 H13        -1.4485   -4.4931    0.9199 H         1 <0>         0.0786
     52 H14         0.1559   -4.3580    0.1611 H         1 <0>         0.0744
     53 H15        -0.5779   -6.2800    0.3324 H         1 <0>         0.1557
     54 H16         1.4653   -8.4154    4.3203 H         1 <0>         0.1451
     55 H17         1.1607   -7.1884    5.9565 H         1 <0>         0.0565
     56 H18         2.7650   -7.0540    5.1974 H         1 <0>         0.0625
     57 H19         2.1806   -5.7654    6.2773 H         1 <0>         0.1113
     58 H20        -0.5952  -10.8356   -0.5320 H         1 <0>         0.2056
     59 H21         0.8199  -12.7605    5.8556 H         1 <0>         0.1566
     60 H22        -2.5873  -10.1456    5.7705 H         1 <0>         0.1614
     61 H23        -2.8911   -8.8521    7.3173 H         1 <0>         0.0817
     62 H24        -3.3976  -10.5315    7.6190 H         1 <0>         0.0864
     63 H25        -3.9218  -11.2861    9.8685 H         1 <0>         0.1266
     64 H26        -4.7067  -10.6462   12.1129 H         1 <0>         0.1294
     65 H27        -4.5008   -8.3122   12.8702 H         1 <0>         0.1280
     66 H28        -3.5094   -6.6183   11.3832 H         1 <0>         0.1275
     67 H29        -2.7169   -7.2600    9.1419 H         1 <0>         0.1232
     68 H30         2.2081  -11.6450    5.7325 H         1 <0>         0.1466
     69 H31         0.5965   -0.2973   -0.7711 H         1 <0>         0.4248
@<TRIPOS>BOND
     1    1    2 1
     2    1   39 1
     3    1   40 1
     4    1   41 1
     5    2    7 1
     6    2    3 1
     7    2   69 1
     8    3    4 1
     9    3   42 1
    10    3   43 1
    11    4    5 1
    12    4   44 1
    13    4   45 1
    14    5    6 1
    15    5    8 1
    16    5   46 1
    17    6    7 1
    18    6   47 1
    19    6   48 1
    20    7   49 1
    21    7   50 1
    22    8    9 1
    23    8   51 1
    24    8   52 1
    25    9   10 1
    26   10   15 ar
    27   10   11 ar
    28   11   12 ar
    29   11   53 1
    30   12   21 ar
    31   12   13 ar
    32   13   14 ar
    33   13   18 ar
    34   14   15 ar
    35   14   54 1
    36   15   16 1
    37   16   17 1
    38   17   55 1
    39   17   56 1
    40   17   57 1
    41   18   19 ar
    42   18   22 1
    43   19   20 ar
    44   20   21 ar
    45   20   58 1
    46   22   23 2
    47   23   28 1
    48   23   24 1
    49   24   59 1
    50   24   68 1
    51   24   25 1
    52   25   38 2
    53   25   26 1
    54   26   30 1
    55   26   27 2
    56   27   28 1
    57   27   60 1
    58   28   29 2
    59   30   31 1
    60   31   32 1
    61   31   61 1
    62   31   62 1
    63   32   37 ar
    64   32   33 ar
    65   33   34 ar
    66   33   63 1
    67   34   35 ar
    68   34   64 1
    69   35   36 ar
    70   35   65 1
    71   36   37 ar
    72   36   66 1
    73   37   67 1
@<TRIPOS>MOLECULE
CHEMBL380795
   71    75     0     0     0
SMALL
USER_CHARGES

@<TRIPOS>ATOM
      1 C1         -0.1216    1.4818   -0.0487 C.3       1 <0>         0.0193
      2 O1         -0.1121    0.0528   -0.0423 O.3       1 <0>        -0.2998
      3 C2          0.5133   -0.5645   -1.0788 C.ar      1 <0>         0.1230
      4 C3          1.0991    0.1873   -2.0593 C.ar      1 <0>        -0.1485
      5 C4          1.7420   -0.4493   -3.1246 C.ar      1 <0>        -0.1519
      6 C5          1.7816   -1.8679   -3.1801 C.ar      1 <0>         0.1892
      7 C6          1.1726   -2.6137   -2.1609 C.ar      1 <0>        -0.1760
      8 C7          0.5558   -1.9668   -1.1277 C.ar      1 <0>         0.1632
      9 O2         -0.0289   -2.6900   -0.1376 O.3       1 <0>        -0.2930
     10 C8          0.0470   -4.1131   -0.2423 C.3       1 <0>         0.0553
     11 C9         -0.6618   -4.7510    0.9543 C.3       1 <0>        -0.1486
     12 C10        -0.5805   -6.2747    0.8422 C.3       1 <0>        -0.0020
     13 N1         -1.2610   -6.8872    1.9910 N.4       1 <0>        -0.3935
     14 C11        -2.7247   -6.6491    1.9059 C.3       1 <0>        -0.0093
     15 C12        -3.3186   -7.7712    2.7940 C.3       1 <0>        -0.1457
     16 C13        -2.3948   -8.9742    2.4949 C.3       1 <0>        -0.1457
     17 C14        -1.0890   -8.3559    1.9621 C.3       1 <0>        -0.0082
     18 N2          2.4037   -2.4535   -4.2103 N.ar      1 <0>        -0.5134
     19 C15         2.9659   -1.7293   -5.1507 C.ar      1 <0>         0.3269
     20 N3          2.9571   -0.4086   -5.1457 N.ar      1 <0>        -0.5290
     21 C16         2.3673    0.2784   -4.1699 C.ar      1 <0>         0.3717
     22 N4          2.3642    1.6392   -4.1748 N.2       1 <0>        -0.3904
     23 C17         3.2869    2.2951   -3.5300 C.2       1 <0>         0.1745
     24 C18         4.4643    1.5947   -2.8708 C.3       1 <0>        -0.1618
     25 C19         5.7155    2.3216   -3.3159 C.2       1 <0>         0.4083
     26 C20         5.7043    3.7944   -3.4057 C.2       1 <0>         0.1191
     27 C21         4.5408    4.4888   -3.4546 C.2       1 <0>        -0.2903
     28 C22         3.2575    3.7783   -3.3981 C.2       1 <0>         0.4432
     29 O3          2.2110    4.3801   -3.2461 O.2       1 <0>        -0.3948
     30 O4          6.8788    4.4655   -3.4395 O.3       1 <0>        -0.2760
     31 C23         6.8096    5.8902   -3.5267 C.3       1 <0>         0.1745
     32 C24         8.1720    6.4469   -3.5523 C.1       1 <0>        -0.1889
     33 C25         9.2586    6.8909   -3.5728 C.1       1 <0>        -0.0673
     34 C26        10.5840    7.4325   -3.5978 C.ar      1 <0>        -0.0040
     35 C27        11.6894    6.5825   -3.5452 C.ar      1 <0>        -0.0899
     36 C28        12.9638    7.1106   -3.5701 C.ar      1 <0>        -0.1183
     37 C29        13.1470    8.4797   -3.6471 C.ar      1 <0>        -0.1035
     38 C30        12.0553    9.3279   -3.6995 C.ar      1 <0>        -0.1185
     39 C31        10.7757    8.8121   -3.6807 C.ar      1 <0>        -0.0917
     40 O5          6.7143    1.7014   -3.5947 O.2       1 <0>        -0.3798
     41 H1          0.9034    1.8521   -0.0346 H         1 <0>         0.0603
     42 H2         -0.6243    1.8378   -0.9480 H         1 <0>         0.0641
     43 H3         -0.6514    1.8455    0.8317 H         1 <0>         0.1114
     44 H4          1.0649    1.2657   -2.0111 H         1 <0>         0.1514
     45 H5          1.1949   -3.6931   -2.1900 H         1 <0>         0.1561
     46 H6         -0.4356   -4.4358   -1.1648 H         1 <0>         0.0784
     47 H7          1.0924   -4.4215   -0.2520 H         1 <0>         0.0790
     48 H8         -0.1791   -4.4283    1.8768 H         1 <0>         0.1006
     49 H9         -1.7072   -4.4426    0.9640 H         1 <0>         0.1000
     50 H10        -1.0631   -6.5974   -0.0803 H         1 <0>         0.1340
     51 H11         0.4649   -6.5831    0.8324 H         1 <0>         0.1348
     52 H12        -2.9786   -5.6673    2.3054 H         1 <0>         0.1366
     53 H13        -3.0714   -6.7485    0.8773 H         1 <0>         0.1348
     54 H14        -3.2664   -7.4974    3.8477 H         1 <0>         0.0986
     55 H15        -4.3454   -7.9915    2.5020 H         1 <0>         0.1172
     56 H16        -2.2014   -9.5386    3.4072 H         1 <0>         0.1057
     57 H17        -2.8446   -9.6179    1.7390 H         1 <0>         0.1043
     58 H18        -0.9107   -8.6888    0.9396 H         1 <0>         0.1315
     59 H19        -0.2539   -8.6446    2.6003 H         1 <0>         0.1333
     60 H20         3.4590   -2.2376   -5.9661 H         1 <0>         0.2076
     61 H21         4.3691    1.6477   -1.7863 H         1 <0>         0.1525
     62 H22         4.5585    5.5653   -3.5386 H         1 <0>         0.1717
     63 H23         6.2842    6.1733   -4.4387 H         1 <0>         0.1039
     64 H24         6.2734    6.2815   -2.6621 H         1 <0>         0.1049
     65 H25        11.5476    5.5135   -3.4848 H         1 <0>         0.1285
     66 H26        13.8201    6.4538   -3.5291 H         1 <0>         0.1312
     67 H27        14.1466    8.8882   -3.6659 H         1 <0>         0.1292
     68 H28        12.2050   10.3958   -3.7595 H         1 <0>         0.1314
     69 H29         9.9243    9.4750   -3.7262 H         1 <0>         0.1284
     70 H30         4.5039    0.5532   -3.1901 H         1 <0>         0.1220
     71 H31        -0.8960   -6.5110    2.8532 H         1 <0>         0.4283
@<TRIPOS>BOND
     1    1    2 1
     2    1   41 1
     3    1   42 1
     4    1   43 1
     5    2    3 1
     6    3    8 ar
     7    3    4 ar
     8    4    5 ar
     9    4   44 1
    10    5   21 ar
    11    5    6 ar
    12    6    7 ar
    13    6   18 ar
    14    7    8 ar
    15    7   45 1
    16    8    9 1
    17    9   10 1
    18   10   11 1
    19   10   46 1
    20   10   47 1
    21   11   12 1
    22   11   48 1
    23   11   49 1
    24   12   13 1
    25   12   50 1
    26   12   51 1
    27   13   17 1
    28   13   14 1
    29   13   71 1
    30   14   15 1
    31   14   52 1
    32   14   53 1
    33   15   16 1
    34   15   54 1
    35   15   55 1
    36   16   17 1
    37   16   56 1
    38   16   57 1
    39   17   58 1
    40   17   59 1
    41   18   19 ar
    42   19   20 ar
    43   19   60 1
    44   20   21 ar
    45   21   22 1
    46   22   23 2
    47   23   28 1
    48   23   24 1
    49   24   61 1
    50   24   70 1
    51   24   25 1
    52   25   40 2
    53   25   26 1
    54   26   30 1
    55   26   27 2
    56   27   28 1
    57   27   62 1
    58   28   29 2
    59   30   31 1
    60   31   32 1
    61   31   63 1
    62   31   64 1
    63   32   33 3
    64   33   34 1
    65   34   39 ar
    66   34   35 ar
    67   35   36 ar
    68   35   65 1
    69   36   37 ar
    70   36   66 1
    71   37   38 ar
    72   37   67 1
    73   38   39 ar
    74   38   68 1
    75   39   69 1
@<TRIPOS>MOLECULE
CHEMBL380795__1
   71    75     0     0     0
SMALL
USER_CHARGES

@<TRIPOS>ATOM
      1 C1         -0.0647    1.4757   -0.0151 C.3       1 <0>         0.0202
      2 O1         -0.0540    0.0467   -0.0104 O.3       1 <0>        -0.2992
      3 C2          0.5576   -0.5691   -1.0560 C.ar      1 <0>         0.1218
      4 C3          1.1293    0.1842   -2.0437 C.ar      1 <0>        -0.1510
      5 C4          1.7579   -0.4508   -3.1184 C.ar      1 <0>        -0.1525
      6 C5          1.7978   -1.8693   -3.1759 C.ar      1 <0>         0.1897
      7 C6          1.2034   -2.6167   -2.1492 C.ar      1 <0>        -0.1740
      8 C7          0.6003   -1.9712   -1.1070 C.ar      1 <0>         0.1600
      9 O2          0.0298   -2.6959   -0.1097 O.3       1 <0>        -0.2935
     10 C8          0.1053   -4.1189   -0.2169 C.3       1 <0>         0.0553
     11 C9         -0.5865   -4.7585    0.9886 C.3       1 <0>        -0.1484
     12 C10        -0.5057   -6.2821    0.8738 C.3       1 <0>        -0.0019
     13 N1         -1.1700   -6.8962    2.0312 N.4       1 <0>        -0.3935
     14 C11        -2.6348   -6.6592    1.9664 C.3       1 <0>        -0.0093
     15 C12        -3.2157   -7.7826    2.8614 C.3       1 <0>        -0.1457
     16 C13        -2.2952   -8.9846    2.5485 C.3       1 <0>        -0.1456
     17 C14        -0.9973   -8.3648    1.9984 C.3       1 <0>        -0.0082
     18 N2          2.4061   -2.4535   -4.2152 N.ar      1 <0>        -0.5152
     19 C15         2.9549   -1.7279   -5.1624 C.ar      1 <0>         0.3303
     20 N3          2.9452   -0.4072   -5.1559 N.ar      1 <0>        -0.5118
     21 C16         2.3683    0.2784   -4.1714 C.ar      1 <0>         0.3727
     22 N4          2.3642    1.6392   -4.1748 N.2       1 <0>        -0.3923
     23 C17         3.2869    2.2951   -3.5300 C.2       1 <0>         0.1739
     24 C18         3.2535    3.8086   -3.3900 C.3       1 <0>        -0.1083
     25 C19         3.4640    4.1206   -1.9235 C.2       1 <0>         0.4026
     26 C20         4.4513    3.3415   -1.1517 C.2       1 <0>         0.1162
     27 C21         4.9083    2.1450   -1.5965 C.2       1 <0>        -0.2961
     28 C22         4.4370    1.6084   -2.8789 C.2       1 <0>         0.3849
     29 O3          4.9692    0.6411   -3.3903 O.2       1 <0>        -0.3985
     30 O4          4.9100    3.8312    0.0233 O.3       1 <0>        -0.2751
     31 C23         5.8646    3.0359    0.7291 C.3       1 <0>         0.1756
     32 C24         6.2481    3.7201    1.9748 C.1       1 <0>        -0.1906
     33 C25         6.5540    4.2658    2.9682 C.1       1 <0>        -0.0656
     34 C26         6.9271    4.9314    4.1800 C.ar      1 <0>        -0.0050
     35 C27         6.3614    6.1650    4.5045 C.ar      1 <0>        -0.0891
     36 C28         6.7248    6.8009    5.6738 C.ar      1 <0>        -0.1176
     37 C29         7.6478    6.2180    6.5237 C.ar      1 <0>        -0.1029
     38 C30         8.2122    4.9951    6.2077 C.ar      1 <0>        -0.1188
     39 C31         7.8534    4.3464    5.0441 C.ar      1 <0>        -0.0924
     40 O5          2.8295    4.9997   -1.3901 O.2       1 <0>        -0.3777
     41 H1          0.9603    1.8467   -0.0148 H         1 <0>         0.0568
     42 H2         -0.5798    1.8322   -0.9071 H         1 <0>         0.0633
     43 H3         -0.5826    1.8381    0.8729 H         1 <0>         0.1121
     44 H4          1.0950    1.2625   -1.9938 H         1 <0>         0.1462
     45 H5          1.2261   -3.6960   -2.1798 H         1 <0>         0.1556
     46 H6         -0.3897   -4.4410   -1.1330 H         1 <0>         0.0783
     47 H7          1.1507   -4.4265   -0.2413 H         1 <0>         0.0784
     48 H8         -0.0915   -4.4364    1.9047 H         1 <0>         0.1003
     49 H9         -1.6319   -4.4509    1.0130 H         1 <0>         0.0999
     50 H10        -1.0008   -6.6042   -0.0423 H         1 <0>         0.1342
     51 H11         0.5397   -6.5897    0.8494 H         1 <0>         0.1347
     52 H12        -2.8840   -5.6779    2.3704 H         1 <0>         0.1365
     53 H13        -2.9956   -6.7578    0.9426 H         1 <0>         0.1348
     54 H14        -3.1492   -7.5099    3.9146 H         1 <0>         0.0985
     55 H15        -4.2462   -8.0033    2.5833 H         1 <0>         0.1172
     56 H16        -2.0889   -9.5498    3.4573 H         1 <0>         0.1057
     57 H17        -2.7549   -9.6279    1.7981 H         1 <0>         0.1043
     58 H18        -0.8329   -8.6965    0.9732 H         1 <0>         0.1316
     59 H19        -0.1533   -8.6535    2.6248 H         1 <0>         0.1332
     60 H20         3.4370   -2.2349   -5.9851 H         1 <0>         0.2058
     61 H21         4.0513    4.2549   -3.9836 H         1 <0>         0.1576
     62 H22         5.6171    1.5848   -1.0048 H         1 <0>         0.1633
     63 H23         5.4254    2.0671    0.9671 H         1 <0>         0.0990
     64 H24         6.7480    2.8914    0.1072 H         1 <0>         0.1039
     65 H25         5.6411    6.6212    3.8417 H         1 <0>         0.1292
     66 H26         6.2880    7.7559    5.9260 H         1 <0>         0.1320
     67 H27         7.9291    6.7200    7.4376 H         1 <0>         0.1296
     68 H28         8.9322    4.5454    6.8754 H         1 <0>         0.1311
     69 H29         8.2914    3.3896    4.8007 H         1 <0>         0.1274
     70 H30         2.2871    4.1914   -3.7182 H         1 <0>         0.1477
     71 H31        -0.7934   -6.5207    2.8887 H         1 <0>         0.4283
@<TRIPOS>BOND
     1    1    2 1
     2    1   41 1
     3    1   42 1
     4    1   43 1
     5    2    3 1
     6    3    8 ar
     7    3    4 ar
     8    4    5 ar
     9    4   44 1
    10    5   21 ar
    11    5    6 ar
    12    6    7 ar
    13    6   18 ar
    14    7    8 ar
    15    7   45 1
    16    8    9 1
    17    9   10 1
    18   10   11 1
    19   10   46 1
    20   10   47 1
    21   11   12 1
    22   11   48 1
    23   11   49 1
    24   12   13 1
    25   12   50 1
    26   12   51 1
    27   13   17 1
    28   13   14 1
    29   13   71 1
    30   14   15 1
    31   14   52 1
    32   14   53 1
    33   15   16 1
    34   15   54 1
    35   15   55 1
    36   16   17 1
    37   16   56 1
    38   16   57 1
    39   17   58 1
    40   17   59 1
    41   18   19 ar
    42   19   20 ar
    43   19   60 1
    44   20   21 ar
    45   21   22 1
    46   22   23 2
    47   23   28 1
    48   23   24 1
    49   24   61 1
    50   24   70 1
    51   24   25 1
    52   25   40 2
    53   25   26 1
    54   26   30 1
    55   26   27 2
    56   27   28 1
    57   27   62 1
    58   28   29 2
    59   30   31 1
    60   31   32 1
    61   31   63 1
    62   31   64 1
    63   32   33 3
    64   33   34 1
    65   34   39 ar
    66   34   35 ar
    67   35   36 ar
    68   35   65 1
    69   36   37 ar
    70   36   66 1
    71   37   38 ar
    72   37   67 1
    73   38   39 ar
    74   38   68 1
    75   39   69 1
@<TRIPOS>MOLECULE
CHEMBL223971
   52    56     0     0     0
SMALL
USER_CHARGES

@<TRIPOS>ATOM
      1 C1         -0.0173    1.4248    0.0099 C.3       1 <0>         0.0305
      2 O1          0.0021   -0.0041    0.0020 O.3       1 <0>        -0.3846
      3 C2          0.6518   -0.5703   -1.1379 C.3       1 <0>         0.0609
      4 C3          0.6131   -2.0967   -1.0411 C.3       1 <0>         0.0634
      5 O2         -0.7418   -2.5446   -1.1169 O.3       1 <0>        -0.3742
      6 C4         -0.8903   -3.9635   -1.0357 C.3       1 <0>         0.1773
      7 C5         -2.3174   -4.3134   -1.1235 C.1       1 <0>        -0.1231
      8 C6         -3.4556   -4.5924   -1.1936 C.1       1 <0>        -0.0827
      9 C7         -4.8440   -4.9327   -1.2791 C.2       1 <0>        -0.0538
     10 C8         -5.9250   -4.1053   -1.4232 C.2       1 <0>        -0.1033
     11 C9         -7.1902   -4.6681   -1.4840 C.2       1 <0>        -0.0488
     12 C10        -7.3090   -6.0289   -1.3975 C.2       1 <0>        -0.1443
     13 S1         -5.6083   -6.5449   -1.2330 S.3       1 <0>         0.1044
     14 C11        -8.3932   -3.8115   -1.6393 C.2       1 <0>         0.1594
     15 C12        -9.5521   -4.1428   -2.3592 C.2       1 <0>        -0.2245
     16 C13       -10.4223   -3.0994   -2.2627 C.2       1 <0>         0.1053
     17 N1         -9.8208   -2.1380   -1.4997 N.pl3     1 <0>        -0.4538
     18 H1        -10.2026   -1.2793   -1.2593 H         1 <0>         0.4418
     19 N2         -8.5593   -2.6128   -1.1210 N.2       1 <0>        -0.2557
     20 C14       -11.6634   -3.4034   -3.0087 C.ar      1 <0>        -0.0405
     21 C15       -12.8310   -2.6608   -3.2033 C.ar      1 <0>        -0.0549
     22 C16       -13.8612   -3.1839   -3.9560 C.ar      1 <0>        -0.1141
     23 C17       -13.7452   -4.4420   -4.5201 C.ar      1 <0>        -0.0833
     24 C18       -12.5918   -5.1838   -4.3320 C.ar      1 <0>        -0.1011
     25 C19       -11.5572   -4.6698   -3.5822 C.ar      1 <0>        -0.0582
     26 C20       -10.2027   -5.2143   -3.2001 C.3       1 <0>        -0.0097
     27 C21       -15.1197   -2.3817   -4.1649 C.3       1 <0>         0.1727
     28 N3        -14.9811   -1.5607   -5.3703 N.pl3     1 <0>        -0.3784
     29 C22       -15.8120   -1.5337   -6.4267 C.2       1 <0>         0.2541
     30 N4        -15.3408   -0.6730   -7.2920 N.2       1 <0>        -0.5453
     31 C23       -14.2156   -0.1329   -6.8254 C.2       1 <0>         0.1985
     32 N5        -13.9569   -0.6410   -5.6491 N.2       1 <0>        -0.3131
     33 H2          1.0053    1.8021    0.0021 H         1 <0>         0.0413
     34 H3         -0.5445    1.7859   -0.8732 H         1 <0>         0.0422
     35 H4         -0.5275    1.7763    0.9067 H         1 <0>         0.0872
     36 H5          0.1385   -0.2506   -2.0447 H         1 <0>         0.0594
     37 H6          1.6883   -0.2344   -1.1694 H         1 <0>         0.0678
     38 H7          1.1847   -2.5275   -1.8631 H         1 <0>         0.0704
     39 H8          1.0473   -2.4117   -0.0922 H         1 <0>         0.0638
     40 H9         -0.3498   -4.4331   -1.8576 H         1 <0>         0.0813
     41 H10        -0.4873   -4.3173   -0.0867 H         1 <0>         0.0823
     42 H11        -5.7947   -3.0351   -1.4880 H         1 <0>         0.1441
     43 H12        -8.2023   -6.6352   -1.4257 H         1 <0>         0.1953
     44 H13       -12.9265   -1.6786   -2.7644 H         1 <0>         0.1252
     45 H14       -14.5561   -4.8461   -5.1080 H         1 <0>         0.1312
     46 H15       -12.5034   -6.1658   -4.7728 H         1 <0>         0.1348
     47 H16        -9.6079   -5.4043   -4.0936 H         1 <0>         0.1027
     48 H17       -10.3154   -6.1306   -2.6206 H         1 <0>         0.1013
     49 H18       -15.9666   -3.0579   -4.2813 H         1 <0>         0.1146
     50 H19       -15.2862   -1.7359   -3.3027 H         1 <0>         0.0987
     51 H20       -16.7114   -2.1206   -6.5413 H         1 <0>         0.2192
     52 H21       -13.6167    0.6076   -7.3346 H         1 <0>         0.2160
@<TRIPOS>BOND
     1    1    2 1
     2    1   33 1
     3    1   34 1
     4    1   35 1
     5    2    3 1
     6    3    4 1
     7    3   36 1
     8    3   37 1
     9    4    5 1
    10    4   38 1
    11    4   39 1
    12    5    6 1
    13    6    7 1
    14    6   40 1
    15    6   41 1
    16    7    8 3
    17    8    9 1
    18    9   13 1
    19    9   10 2
    20   10   11 1
    21   10   42 1
    22   11   12 2
    23   11   14 1
    24   12   13 1
    25   12   43 1
    26   14   19 2
    27   14   15 1
    28   15   26 1
    29   15   16 2
    30   16   17 1
    31   16   20 1
    32   17   18 1
    33   17   19 1
    34   20   25 ar
    35   20   21 ar
    36   21   22 ar
    37   21   44 1
    38   22   23 ar
    39   22   27 1
    40   23   24 ar
    41   23   45 1
    42   24   25 ar
    43   24   46 1
    44   25   26 1
    45   26   47 1
    46   26   48 1
    47   27   28 1
    48   27   49 1
    49   27   50 1
    50   28   32 1
    51   28   29 1
    52   29   30 2
    53   29   51 1
    54   30   31 1
    55   31   32 2
    56   31   52 1
@<TRIPOS>MOLECULE
CHEMBL223971__1
   52    56     0     0     0
SMALL
USER_CHARGES

@<TRIPOS>ATOM
      1 C1         -0.0173    1.4248    0.0099 C.3       1 <0>         0.0304
      2 O1          0.0021   -0.0041    0.0020 O.3       1 <0>        -0.3852
      3 C2          0.6518   -0.5703   -1.1379 C.3       1 <0>         0.0608
      4 C3          0.6131   -2.0967   -1.0411 C.3       1 <0>         0.0635
      5 O2         -0.7418   -2.5446   -1.1169 O.3       1 <0>        -0.3747
      6 C4         -0.8903   -3.9635   -1.0357 C.3       1 <0>         0.1753
      7 C5         -2.3174   -4.3134   -1.1235 C.1       1 <0>        -0.1139
      8 C6         -3.4556   -4.5924   -1.1936 C.1       1 <0>        -0.0906
      9 C7         -4.8440   -4.9327   -1.2791 C.2       1 <0>        -0.0453
     10 C8         -5.9241   -4.1052   -1.4232 C.2       1 <0>        -0.1197
     11 C9         -7.1910   -4.6679   -1.4841 C.2       1 <0>        -0.0725
     12 C10        -7.3086   -6.0308   -1.3974 C.2       1 <0>        -0.1370
     13 S1         -5.6075   -6.5452   -1.2330 S.3       1 <0>         0.1162
     14 C11        -8.3904   -3.8142   -1.6389 C.2       1 <0>         0.1683
     15 C12        -9.4330   -4.0357   -2.4867 C.2       1 <0>        -0.2328
     16 C13       -10.3589   -2.9925   -2.3219 C.2       1 <0>         0.0968
     17 N1         -9.8869   -2.1704   -1.4038 N.2       1 <0>        -0.2519
     18 H1         -8.0918   -2.2606   -0.2777 H         1 <0>         0.4457
     19 N2         -8.6566   -2.6652   -0.9546 N.pl3     1 <0>        -0.4603
     20 C14       -11.5081   -3.2098   -3.2371 C.ar      1 <0>        -0.0218
     21 C15       -12.6688   -2.4628   -3.4459 C.ar      1 <0>        -0.0457
     22 C16       -13.6021   -2.8837   -4.3701 C.ar      1 <0>        -0.1171
     23 C17       -13.3926   -4.0448   -5.0924 C.ar      1 <0>        -0.0835
     24 C18       -12.2449   -4.7900   -4.8903 C.ar      1 <0>        -0.1048
     25 C19       -11.3058   -4.3764   -3.9683 C.ar      1 <0>        -0.0601
     26 C20        -9.9852   -4.9664   -3.5377 C.3       1 <0>        -0.0002
     27 C21       -14.8546   -2.0761   -4.5935 C.3       1 <0>         0.1730
     28 N3        -14.6164   -1.0870   -5.6476 N.pl3     1 <0>        -0.3774
     29 C22       -15.3352   -0.9177   -6.7710 C.2       1 <0>         0.2525
     30 N4        -14.8021    0.0657   -7.4496 N.2       1 <0>        -0.5463
     31 C23       -13.7464    0.5469   -6.7945 C.2       1 <0>         0.1967
     32 N5        -13.5954   -0.1232   -5.6824 N.2       1 <0>        -0.3098
     33 H2          1.0053    1.8021    0.0021 H         1 <0>         0.0418
     34 H3         -0.5445    1.7859   -0.8732 H         1 <0>         0.0423
     35 H4         -0.5275    1.7763    0.9067 H         1 <0>         0.0873
     36 H5          0.1385   -0.2506   -2.0447 H         1 <0>         0.0595
     37 H6          1.6883   -0.2344   -1.1694 H         1 <0>         0.0685
     38 H7          1.1847   -2.5275   -1.8631 H         1 <0>         0.0710
     39 H8          1.0473   -2.4117   -0.0922 H         1 <0>         0.0643
     40 H9         -0.3498   -4.4331   -1.8576 H         1 <0>         0.0828
     41 H10        -0.4873   -4.3173   -0.0867 H         1 <0>         0.0836
     42 H11        -5.7932   -3.0351   -1.4878 H         1 <0>         0.1407
     43 H12        -8.2014   -6.6380   -1.4254 H         1 <0>         0.1979
     44 H13       -12.8361   -1.5560   -2.8837 H         1 <0>         0.1288
     45 H14       -14.1264   -4.3701   -5.8150 H         1 <0>         0.1301
     46 H15       -12.0838   -5.6965   -5.4548 H         1 <0>         0.1329
     47 H16        -9.3039   -5.0193   -4.3870 H         1 <0>         0.0967
     48 H17       -10.1375   -5.9599   -3.1161 H         1 <0>         0.0960
     49 H18       -15.6657   -2.7393   -4.8942 H         1 <0>         0.1139
     50 H19       -15.1268   -1.5648   -3.6702 H         1 <0>         0.0994
     51 H20       -16.2011   -1.4934   -7.0626 H         1 <0>         0.2186
     52 H21       -13.1196    1.3613   -7.1264 H         1 <0>         0.2156
@<TRIPOS>BOND
     1    1    2 1
     2    1   33 1
     3    1   34 1
     4    1   35 1
     5    2    3 1
     6    3    4 1
     7    3   36 1
     8    3   37 1
     9    4    5 1
    10    4   38 1
    11    4   39 1
    12    5    6 1
    13    6    7 1
    14    6   40 1
    15    6   41 1
    16    7    8 3
    17    8    9 1
    18    9   13 1
    19    9   10 2
    20   10   11 1
    21   10   42 1
    22   11   12 2
    23   11   14 1
    24   12   13 1
    25   12   43 1
    26   14   15 2
    27   14   19 1
    28   15   16 1
    29   15   26 1
    30   16   17 2
    31   16   20 1
    32   17   19 1
    33   18   19 1
    34   20   25 ar
    35   20   21 ar
    36   21   22 ar
    37   21   44 1
    38   22   23 ar
    39   22   27 1
    40   23   24 ar
    41   23   45 1
    42   24   25 ar
    43   24   46 1
    44   25   26 1
    45   26   47 1
    46   26   48 1
    47   27   28 1
    48   27   49 1
    49   27   50 1
    50   28   32 1
    51   28   29 1
    52   29   30 2
    53   29   51 1
    54   30   31 1
    55   31   32 2
    56   31   52 1
@<TRIPOS>MOLECULE
CHEMBL233224
   60    64     0     0     0
SMALL
USER_CHARGES

@<TRIPOS>ATOM
      1 C1         -0.3093    1.4860    0.1586 C.3       1 <0>        -0.0458
      2 N1         -0.2889    0.0172    0.1426 N.4       1 <0>        -0.3885
      3 C2         -1.6588   -0.4927    0.2869 C.3       1 <0>        -0.0025
      4 C3         -1.6402   -2.0224    0.2515 C.3       1 <0>         0.0249
      5 N2         -0.7945   -2.5247    1.3435 N.3       1 <0>        -0.5399
      6 C4          0.5742   -2.0024    1.2263 C.3       1 <0>         0.0196
      7 C5          0.5374   -0.4728    1.2537 C.3       1 <0>        -0.0028
      8 C6         -0.7964   -3.9933    1.3781 C.3       1 <0>         0.0597
      9 C7         -0.1180   -4.4741    2.6624 C.3       1 <0>        -0.0704
     10 C8         -0.1199   -5.9807    2.6978 C.ar      1 <0>        -0.1153
     11 C9         -1.1808   -6.6559    3.2730 C.ar      1 <0>        -0.0899
     12 C10        -1.1855   -8.0365    3.3075 C.ar      1 <0>        -0.1120
     13 C11        -0.1233   -8.7469    2.7632 C.ar      1 <0>         0.1734
     14 C12         0.9406   -8.0656    2.1858 C.ar      1 <0>        -0.1467
     15 C13         0.9366   -6.6850    2.1499 C.ar      1 <0>        -0.0922
     16 N3         -0.1246  -10.1446    2.7969 N.pl3     1 <0>        -0.6361
     17 C14        -1.3207  -10.8388    2.7053 C.ar      1 <0>         0.5631
     18 N4         -2.4402  -10.1678    2.4764 N.ar      1 <0>        -0.5508
     19 C15        -3.6040  -10.7934    2.3819 C.ar      1 <0>         0.2059
     20 C16        -3.6469  -12.1681    2.5250 C.ar      1 <0>        -0.1935
     21 C17        -2.4481  -12.8508    2.7662 C.ar      1 <0>         0.3261
     22 N5         -1.3139  -12.1550    2.8435 N.ar      1 <0>        -0.5391
     23 C18        -2.4400  -14.3208    2.9272 C.2       1 <0>        -0.1658
     24 C19        -3.0475  -15.2286    2.1207 C.2       1 <0>         0.1193
     25 N6         -2.8178  -16.4867    2.5881 N.pl3     1 <0>        -0.5807
     26 H1         -3.1506  -17.3002    2.1778 H         1 <0>         0.4234
     27 C20        -2.0438  -16.4381    3.7279 C.ar      1 <0>         0.0901
     28 C21        -1.7662  -15.0858    3.9898 C.ar      1 <0>        -0.0684
     29 C22        -0.9888  -14.7335    5.0913 C.ar      1 <0>        -0.0686
     30 C23        -0.4922  -15.7171    5.9178 C.ar      1 <0>        -0.1369
     31 C24        -0.7622  -17.0530    5.6579 C.ar      1 <0>        -0.0969
     32 C25        -1.5368  -17.4157    4.5776 C.ar      1 <0>        -0.1235
     33 Cl1        -5.1510  -13.0271    2.4089 Cl        1 <0>        -0.0357
     34 H2          0.7071    1.8647    0.0502 H         1 <0>         0.1240
     35 H3         -0.9224    1.8499   -0.6659 H         1 <0>         0.1240
     36 H4         -0.7276    1.8333    1.1033 H         1 <0>         0.1232
     37 H5         -2.0735   -0.1564    1.2372 H         1 <0>         0.1378
     38 H6         -2.2741   -0.1178   -0.5309 H         1 <0>         0.1353
     39 H7         -2.6549   -2.4014    0.3735 H         1 <0>         0.1238
     40 H8         -1.2383   -2.3592   -0.7041 H         1 <0>         0.0602
     41 H9          1.1752   -2.3667    2.0595 H         1 <0>         0.1259
     42 H10         1.0127   -2.3388    0.2868 H         1 <0>         0.0606
     43 H11         1.5503   -0.0831    1.1526 H         1 <0>         0.1351
     44 H12         0.1115   -0.1366    2.1991 H         1 <0>         0.1377
     45 H13        -1.8240   -4.3560    1.3523 H         1 <0>         0.0908
     46 H14        -0.2536   -4.3777    0.5145 H         1 <0>         0.0485
     47 H15         0.9096   -4.1114    2.6882 H         1 <0>         0.0701
     48 H16        -0.6608   -4.0897    3.5259 H         1 <0>         0.0840
     49 H17        -2.0065   -6.1029    3.6960 H         1 <0>         0.1249
     50 H18        -2.0141   -8.5632    3.7575 H         1 <0>         0.1374
     51 H19         1.7682   -8.6150    1.7620 H         1 <0>         0.1265
     52 H20         1.7615   -6.1548    1.6975 H         1 <0>         0.1217
     53 H21         0.7115  -10.6284    2.8843 H         1 <0>         0.4269
     54 H22        -4.5098  -10.2356    2.1954 H         1 <0>         0.1802
     55 H23        -3.6260  -14.9889    1.2408 H         1 <0>         0.1772
     56 H24        -0.7764  -13.6945    5.2956 H         1 <0>         0.1200
     57 H25         0.1107  -15.4471    6.7723 H         1 <0>         0.1253
     58 H26        -0.3672  -17.8156    6.3127 H         1 <0>         0.1291
     59 H27        -1.7395  -18.4587    4.3836 H         1 <0>         0.1241
     60 H28         0.0988   -0.3041   -0.7318 H         1 <0>         0.4222
@<TRIPOS>BOND
     1    1    2 1
     2    1   34 1
     3    1   35 1
     4    1   36 1
     5    2    7 1
     6    2    3 1
     7    2   60 1
     8    3    4 1
     9    3   37 1
    10    3   38 1
    11    4    5 1
    12    4   39 1
    13    4   40 1
    14    5    6 1
    15    5    8 1
    16    6    7 1
    17    6   41 1
    18    6   42 1
    19    7   43 1
    20    7   44 1
    21    8    9 1
    22    8   45 1
    23    8   46 1
    24    9   10 1
    25    9   47 1
    26    9   48 1
    27   10   15 ar
    28   10   11 ar
    29   11   12 ar
    30   11   49 1
    31   12   13 ar
    32   12   50 1
    33   13   14 ar
    34   13   16 1
    35   14   15 ar
    36   14   51 1
    37   15   52 1
    38   16   17 1
    39   16   53 1
    40   17   22 ar
    41   17   18 ar
    42   18   19 ar
    43   19   20 ar
    44   19   54 1
    45   20   21 ar
    46   20   33 1
    47   21   22 ar
    48   21   23 1
    49   23   28 1
    50   23   24 2
    51   24   25 1
    52   24   55 1
    53   25   26 1
    54   25   27 1
    55   27   32 ar
    56   27   28 ar
    57   28   29 ar
    58   29   30 ar
    59   29   56 1
    60   30   31 ar
    61   30   57 1
    62   31   32 ar
    63   31   58 1
    64   32   59 1
@<TRIPOS>MOLECULE
CHEMBL233224__1
   60    64     0     0     0
SMALL
USER_CHARGES

@<TRIPOS>ATOM
      1 C1         -0.3209    1.4664    0.1506 C.3       1 <0>         0.0194
      2 N1         -0.2909   -0.0023    0.1396 N.3       1 <0>        -0.5439
      3 C2         -1.6506   -0.5573    0.1971 C.3       1 <0>         0.0243
      4 C3         -1.5786   -2.0841    0.1236 C.3       1 <0>        -0.0020
      5 N2         -0.7764   -2.5912    1.2446 N.4       1 <0>        -0.3870
      6 C4          0.5855   -2.0477    1.1597 C.3       1 <0>        -0.0070
      7 C5          0.5315   -0.5206    1.2419 C.3       1 <0>         0.0246
      8 C6         -0.7226   -4.0580    1.1839 C.3       1 <0>        -0.0061
      9 C7          0.0064   -4.5932    2.4180 C.3       1 <0>        -0.0947
     10 C8          0.0615   -6.0979    2.3557 C.ar      1 <0>        -0.1314
     11 C9         -0.9582   -6.8492    2.9106 C.ar      1 <0>        -0.0851
     12 C10        -0.9105   -8.2283    2.8556 C.ar      1 <0>        -0.1136
     13 C11         0.1631   -8.8606    2.2416 C.ar      1 <0>         0.1889
     14 C12         1.1855   -8.1029    1.6848 C.ar      1 <0>        -0.1471
     15 C13         1.1290   -6.7241    1.7387 C.ar      1 <0>        -0.0831
     16 N3          0.2147  -10.2566    2.1846 N.pl3     1 <0>        -0.6371
     17 C14        -0.9565  -10.9895    2.0763 C.ar      1 <0>         0.5611
     18 N4         -2.1059  -10.3493    1.9177 N.ar      1 <0>        -0.5530
     19 C15        -3.2476  -11.0123    1.8101 C.ar      1 <0>         0.2052
     20 C16        -3.2355  -12.3940    1.8647 C.ar      1 <0>        -0.1907
     21 C17        -2.0062  -13.0436    2.0330 C.ar      1 <0>         0.3281
     22 N5         -0.8972  -12.3106    2.1286 N.ar      1 <0>        -0.5368
     23 C18        -1.9391  -14.5195    2.0980 C.2       1 <0>        -0.1690
     24 C19        -2.5330  -15.3968    1.2488 C.2       1 <0>         0.1214
     25 N6         -2.2445  -16.6723    1.6281 N.pl3     1 <0>        -0.5799
     26 H1         -2.5572  -17.4702    1.1738 H         1 <0>         0.4240
     27 C20        -1.4436  -16.6666    2.7502 C.ar      1 <0>         0.0900
     28 C21        -1.2100  -15.3240    3.0927 C.ar      1 <0>        -0.0682
     29 C22        -0.4180  -15.0129    4.1962 C.ar      1 <0>        -0.0696
     30 C23         0.1362  -16.0272    4.9453 C.ar      1 <0>        -0.1359
     31 C24        -0.0904  -17.3533    4.6057 C.ar      1 <0>        -0.0966
     32 C25        -0.8786  -17.6761    3.5226 C.ar      1 <0>        -0.1225
     33 Cl1        -4.7090  -13.3017    1.7284 Cl        1 <0>        -0.0324
     34 H2          0.6930    1.8513    0.0411 H         1 <0>         0.0842
     35 H3         -0.9363    1.8234   -0.6752 H         1 <0>         0.0837
     36 H4         -0.7417    1.8141    1.0941 H         1 <0>         0.0394
     37 H5         -2.1254   -0.2603    1.1322 H         1 <0>         0.0603
     38 H6         -2.2334   -0.1798   -0.6431 H         1 <0>         0.1234
     39 H7         -2.5852   -2.4985    0.1804 H         1 <0>         0.1360
     40 H8         -1.1161   -2.3811   -0.8177 H         1 <0>         0.1375
     41 H9          1.1834   -2.4350    1.9847 H         1 <0>         0.1371
     42 H10         1.0369   -2.3448    0.2131 H         1 <0>         0.1380
     43 H11         1.5408   -0.1163    1.1639 H         1 <0>         0.1232
     44 H12         0.0927   -0.2229    2.1942 H         1 <0>         0.0604
     45 H13        -1.7362   -4.4580    1.1587 H         1 <0>         0.1330
     46 H14        -0.1884   -4.3650    0.2848 H         1 <0>         0.1320
     47 H15         1.0200   -4.1931    2.4432 H         1 <0>         0.0930
     48 H16        -0.5279   -4.2861    3.3172 H         1 <0>         0.0928
     49 H17        -1.7927   -6.3569    3.3879 H         1 <0>         0.1259
     50 H18        -1.7069   -8.8145    3.2898 H         1 <0>         0.1409
     51 H19         2.0218   -8.5915    1.2071 H         1 <0>         0.1313
     52 H20         1.9216   -6.1343    1.3024 H         1 <0>         0.1271
     53 H21         1.0703  -10.7121    2.2209 H         1 <0>         0.4289
     54 H22        -4.1781  -10.4794    1.6815 H         1 <0>         0.1810
     55 H23        -3.1427  -15.1240    0.4001 H         1 <0>         0.1774
     56 H24        -0.2393  -13.9816    4.4625 H         1 <0>         0.1195
     57 H25         0.7505  -15.7892    5.8011 H         1 <0>         0.1256
     58 H26         0.3496  -18.1403    5.2003 H         1 <0>         0.1296
     59 H27        -1.0472  -18.7116    3.2662 H         1 <0>         0.1247
     60 H28        -1.1983   -2.3063    2.1158 H         1 <0>         0.4200
@<TRIPOS>BOND
     1    1    2 1
     2    1   34 1
     3    1   35 1
     4    1   36 1
     5    2    7 1
     6    2    3 1
     7    3    4 1
     8    3   37 1
     9    3   38 1
    10    4    5 1
    11    4   39 1
    12    4   40 1
    13    5    6 1
    14    5    8 1
    15    5   60 1
    16    6    7 1
    17    6   41 1
    18    6   42 1
    19    7   43 1
    20    7   44 1
    21    8    9 1
    22    8   45 1
    23    8   46 1
    24    9   10 1
    25    9   47 1
    26    9   48 1
    27   10   15 ar
    28   10   11 ar
    29   11   12 ar
    30   11   49 1
    31   12   13 ar
    32   12   50 1
    33   13   14 ar
    34   13   16 1
    35   14   15 ar
    36   14   51 1
    37   15   52 1
    38   16   17 1
    39   16   53 1
    40   17   22 ar
    41   17   18 ar
    42   18   19 ar
    43   19   20 ar
    44   19   54 1
    45   20   21 ar
    46   20   33 1
    47   21   22 ar
    48   21   23 1
    49   23   28 1
    50   23   24 2
    51   24   25 1
    52   24   55 1
    53   25   26 1
    54   25   27 1
    55   27   32 ar
    56   27   28 ar
    57   28   29 ar
    58   29   30 ar
    59   29   56 1
    60   30   31 ar
    61   30   57 1
    62   31   32 ar
    63   31   58 1
    64   32   59 1
@<TRIPOS>MOLECULE
CHEMBL241682
   60    64     0     0     0
SMALL
USER_CHARGES

@<TRIPOS>ATOM
      1 C1         -0.3585    1.8196    0.0514 C.ar      1 <0>        -0.1341
      2 C2          0.8190    2.5395    0.0698 C.ar      1 <0>        -0.0451
      3 C3          2.0306    1.8832    0.2792 C.ar      1 <0>        -0.0444
      4 C4          2.0455    0.5020    0.4689 C.ar      1 <0>        -0.0136
      5 C5          0.8621   -0.2072    0.4485 C.ar      1 <0>        -0.6724
      6 C6         -0.3377    0.4496    0.2402 C.ar      1 <0>        -0.0176
      7 S1          0.8789   -1.9528    0.6875 S.o2      1 <0>         2.7007
      8 O1         -0.3030   -2.4572    0.0808 O.2       1 <0>        -0.9617
      9 O2          2.1758   -2.4009    0.3180 O.2       1 <0>        -0.9586
     10 N1          0.7295   -2.2258    2.3140 N.pl3     1 <0>        -1.2475
     11 C7          3.2991    2.6508    0.2996 C.ar      1 <0>        -0.1619
     12 C8          4.2077    2.4864    1.3368 C.ar      1 <0>         0.1912
     13 N2          5.3428    3.1618    1.3708 N.ar      1 <0>        -0.5522
     14 C9          5.6756    4.0271    0.4249 C.ar      1 <0>         0.4724
     15 C10         4.8178    4.2534   -0.6562 C.ar      1 <0>        -0.2344
     16 C11         3.6053    3.5530   -0.7332 C.ar      1 <0>         0.1467
     17 O3          2.9785    3.9431   -1.8551 O.3       1 <0>        -0.1758
     18 C12         3.7063    4.8547   -2.5249 C.2       1 <0>         0.0077
     19 C13         4.8529    5.1103   -1.8528 C.2       1 <0>        -0.1105
     20 C14         5.9299    6.0499   -2.2479 C.ar      1 <0>        -0.0333
     21 C15         6.4263    6.9706   -1.3260 C.ar      1 <0>        -0.1013
     22 C16         7.4281    7.8429   -1.6957 C.ar      1 <0>        -0.1104
     23 C17         7.9429    7.8051   -2.9858 C.ar      1 <0>         0.1653
     24 C18         7.4499    6.8885   -3.9065 C.ar      1 <0>        -0.1338
     25 C19         6.4518    6.0105   -3.5402 C.ar      1 <0>        -0.0829
     26 N3          8.9593    8.6918   -3.3586 N.am      1 <0>        -0.6774
     27 C20         9.8876    9.0701   -2.4577 C.2       1 <0>         0.7080
     28 O4          9.8980    8.5706   -1.3492 O.2       1 <0>        -0.5494
     29 N4         10.8043   10.0022   -2.7855 N.am      1 <0>        -0.6762
     30 C21        11.8269   10.3258   -1.8848 C.ar      1 <0>         0.1302
     31 C22        11.5933   10.2699   -0.5177 C.ar      1 <0>        -0.0484
     32 C23        12.6038   10.5897    0.3684 C.ar      1 <0>        -0.1746
     33 C24        13.8478   10.9654   -0.1042 C.ar      1 <0>        -0.0546
     34 C25        14.0855   11.0226   -1.4651 C.ar      1 <0>        -0.1324
     35 C26        13.0802   10.6983   -2.3579 C.ar      1 <0>         0.1066
     36 F1         13.3140   10.7482   -3.6876 F         1 <0>        -0.1266
     37 C27        12.3497   10.5294    1.8526 C.3       1 <0>         0.5128
     38 F2         12.6571    9.2496    2.3268 F         1 <0>        -0.1716
     39 F3         13.1532   11.4728    2.5020 F         1 <0>        -0.1740
     40 F4         11.0029   10.8099    2.1070 F         1 <0>        -0.1735
     41 N5          6.8792    4.7117    0.5070 N.pl3     1 <0>        -0.8359
     42 H1         -1.2984    2.3278   -0.1063 H         1 <0>         0.1369
     43 H2          0.8017    3.6091   -0.0781 H         1 <0>         0.1305
     44 H3          2.9814   -0.0118    0.6313 H         1 <0>         0.1449
     45 H4         -1.2615   -0.1095    0.2253 H         1 <0>         0.1436
     46 H5          0.2953   -3.0326    2.6326 H         1 <0>         0.4223
     47 H6          1.0761   -1.5788    2.9482 H         1 <0>         0.4176
     48 H7          3.9816    1.7922    2.1326 H         1 <0>         0.1710
     49 H8          3.4153    5.3193   -3.4554 H         1 <0>         0.2149
     50 H9          6.0263    7.0006   -0.3232 H         1 <0>         0.1315
     51 H10         7.8128    8.5565   -0.9820 H         1 <0>         0.1415
     52 H11         7.8514    6.8613   -4.9087 H         1 <0>         0.1329
     53 H12         6.0717    5.2955   -4.2549 H         1 <0>         0.1334
     54 H13         8.9957    9.0342   -4.2655 H         1 <0>         0.4125
     55 H14        10.7558   10.4488   -3.6451 H         1 <0>         0.4162
     56 H15        10.6221    9.9770   -0.1470 H         1 <0>         0.1684
     57 H16        14.6354   11.2151    0.5912 H         1 <0>         0.1507
     58 H17        15.0581   11.3167   -1.8311 H         1 <0>         0.1558
     59 H18         7.4754    4.5563    1.2563 H         1 <0>         0.4084
     60 H19         7.1247    5.3458   -0.1847 H         1 <0>         0.4118
@<TRIPOS>BOND
     1    1    6 ar
     2    1    2 ar
     3    1   42 1
     4    2    3 ar
     5    2   43 1
     6    3    4 ar
     7    3   11 1
     8    4    5 ar
     9    4   44 1
    10    5    6 ar
    11    5    7 1
    12    6   45 1
    13    7    8 2
    14    7    9 2
    15    7   10 1
    16   10   46 1
    17   10   47 1
    18   11   16 ar
    19   11   12 ar
    20   12   13 ar
    21   12   48 1
    22   13   14 ar
    23   14   15 ar
    24   14   41 1
    25   15   19 1
    26   15   16 ar
    27   16   17 1
    28   17   18 1
    29   18   19 2
    30   18   49 1
    31   19   20 1
    32   20   25 ar
    33   20   21 ar
    34   21   22 ar
    35   21   50 1
    36   22   23 ar
    37   22   51 1
    38   23   24 ar
    39   23   26 1
    40   24   25 ar
    41   24   52 1
    42   25   53 1
    43   26   27 am
    44   26   54 1
    45   27   28 2
    46   27   29 am
    47   29   30 1
    48   29   55 1
    49   30   35 ar
    50   30   31 ar
    51   31   32 ar
    52   31   56 1
    53   32   33 ar
    54   32   37 1
    55   33   34 ar
    56   33   57 1
    57   34   35 ar
    58   34   58 1
    59   35   36 1
    60   37   38 1
    61   37   39 1
    62   37   40 1
    63   41   59 1
    64   41   60 1
@<TRIPOS>MOLECULE
CHEMBL202011
   45    48     0     0     0
SMALL
USER_CHARGES

@<TRIPOS>ATOM
      1 C1          3.8803    1.6963   -1.2490 C.ar      1 <0>        -0.1102
      2 C2          2.8789    2.2298   -0.4398 C.ar      1 <0>        -0.1039
      3 C3          2.0565    1.4230    0.2843 C.ar      1 <0>        -0.0883
      4 C4          2.2135    0.0270    0.2197 C.ar      1 <0>         0.1115
      5 C5          3.2323   -0.5132   -0.6044 C.ar      1 <0>        -0.0815
      6 C6          4.0632    0.3503   -1.3377 C.ar      1 <0>        -0.0979
      7 C7          3.3903   -1.9091   -0.6699 C.ar      1 <0>        -0.0625
      8 C8          2.5358   -2.6949    0.0799 C.ar      1 <0>         0.0877
      9 C9          1.5529   -2.0886    0.8708 C.ar      1 <0>         0.1206
     10 N1          1.4181   -0.7867    0.9209 N.ar      1 <0>        -0.4534
     11 N2          2.6523   -4.0883    0.0482 N.am      1 <0>        -0.6623
     12 C10         3.8630   -4.6600   -0.1059 C.2       1 <0>         0.5760
     13 O1          4.8639   -3.9694   -0.1226 O.2       1 <0>        -0.5334
     14 C11         3.9740   -6.1224   -0.2542 C.ar      1 <0>        -0.2335
     15 C12         2.8229   -6.9080   -0.3579 C.ar      1 <0>        -0.0328
     16 C13         2.9334   -8.2739   -0.4968 C.ar      1 <0>        -0.1887
     17 C14         4.1816   -8.8755   -0.5338 C.ar      1 <0>        -0.0338
     18 C15         5.3275   -8.1139   -0.4326 C.ar      1 <0>        -0.2113
     19 C16         5.2365   -6.7340   -0.2978 C.ar      1 <0>         0.2827
     20 N3          6.3887   -5.9645   -0.2011 N.pl3     1 <0>        -0.7216
     21 C17         7.6981   -6.6148   -0.1082 C.3       1 <0>         0.1557
     22 C18         8.7749   -5.5647   -0.0141 C.ar      1 <0>        -0.0625
     23 C19         9.3689   -5.0527   -1.1576 C.ar      1 <0>        -0.1537
     24 C20        10.3532   -4.0907   -1.0322 C.ar      1 <0>         0.0992
     25 N4         10.7283   -3.6605    0.1566 N.ar      1 <0>        -0.4786
     26 C21        10.1856   -4.1248    1.2651 C.ar      1 <0>         0.0997
     27 C22         9.1912   -5.0835    1.2178 C.ar      1 <0>        -0.1528
     28 H1          4.5165    2.3593   -1.8165 H         1 <0>         0.1295
     29 H2          2.7537    3.3012   -0.3862 H         1 <0>         0.1317
     30 H3          1.2861    1.8533    0.9069 H         1 <0>         0.1367
     31 H4          4.8424   -0.0514   -1.9684 H         1 <0>         0.1303
     32 H5          4.1562   -2.3537   -1.2880 H         1 <0>         0.1497
     33 H6          0.8888   -2.7096    1.4536 H         1 <0>         0.1625
     34 H7          1.8616   -4.6432    0.1372 H         1 <0>         0.4148
     35 H8          1.8477   -6.4446   -0.3290 H         1 <0>         0.1243
     36 H9          2.0428   -8.8795   -0.5768 H         1 <0>         0.1276
     37 H10         4.2576   -9.9474   -0.6422 H         1 <0>         0.1284
     38 H11         6.2963   -8.5904   -0.4620 H         1 <0>         0.1295
     39 H12         6.3263   -4.9965   -0.1950 H         1 <0>         0.4210
     40 H13         7.7280   -7.2464    0.7796 H         1 <0>         0.0765
     41 H14         7.8637   -7.2266   -0.9950 H         1 <0>         0.0767
     42 H15         9.0664   -5.4016   -2.1339 H         1 <0>         0.1366
     43 H16        10.8207   -3.6869   -1.9180 H         1 <0>         0.1588
     44 H17        10.5191   -3.7485    2.2209 H         1 <0>         0.1587
     45 H18         8.7471   -5.4562    2.1289 H         1 <0>         0.1363
@<TRIPOS>BOND
     1    1    6 ar
     2    1    2 ar
     3    1   28 1
     4    2    3 ar
     5    2   29 1
     6    3    4 ar
     7    3   30 1
     8    4   10 ar
     9    4    5 ar
    10    5    6 ar
    11    5    7 ar
    12    6   31 1
    13    7    8 ar
    14    7   32 1
    15    8    9 ar
    16    8   11 1
    17    9   10 ar
    18    9   33 1
    19   11   12 am
    20   11   34 1
    21   12   13 2
    22   12   14 1
    23   14   19 ar
    24   14   15 ar
    25   15   16 ar
    26   15   35 1
    27   16   17 ar
    28   16   36 1
    29   17   18 ar
    30   17   37 1
    31   18   19 ar
    32   18   38 1
    33   19   20 1
    34   20   21 1
    35   20   39 1
    36   21   22 1
    37   21   40 1
    38   21   41 1
    39   22   27 ar
    40   22   23 ar
    41   23   24 ar
    42   23   42 1
    43   24   25 ar
    44   24   43 1
    45   25   26 ar
    46   26   27 ar
    47   26   44 1
    48   27   45 1
@<TRIPOS>MOLECULE
CHEMBL431996
   46    49     0     0     0
SMALL
USER_CHARGES

@<TRIPOS>ATOM
      1 C1         -0.0284    0.9815    1.4484 C.ar      1 <0>        -0.0570
      2 C2          1.1286    1.4535    2.0222 C.ar      1 <0>        -0.1529
      3 C3          2.3552    0.8639    1.7211 C.ar      1 <0>         0.1163
      4 C4          2.3971   -0.2177    0.8254 C.ar      1 <0>        -0.1066
      5 C5          1.2332   -0.6968    0.2452 C.ar      1 <0>        -0.0300
      6 C6          0.0101   -0.0965    0.5551 C.ar      1 <0>        -0.1479
      7 C7         -1.2338   -0.5962   -0.0544 C.2       1 <0>         0.5226
      8 O1         -2.3035   -0.0695    0.2192 O.co2     1 <0>        -0.6940
      9 O2         -1.1975   -1.5379   -0.8344 O.co2     1 <0>        -0.6805
     10 C8          3.8200   -0.6126    0.7174 C.2       1 <0>        -0.2073
     11 C9          4.3549   -1.6301   -0.0490 C.2       1 <0>         0.0832
     12 C10         5.7540   -1.7712   -0.1564 C.2       1 <0>        -0.0158
     13 C11         6.4518   -2.9648   -0.2801 C.2       1 <0>        -0.0691
     14 C12         7.8014   -2.6395   -0.3551 C.2       1 <0>        -0.1758
     15 C13         7.9157   -1.2848   -0.2778 C.2       1 <0>         0.0459
     16 N1          6.6794   -0.7476   -0.1638 N.pl3     1 <0>        -0.5056
     17 H1          6.4774    0.1987   -0.0964 H         1 <0>         0.4140
     18 C14         9.2337   -0.5485   -0.3212 C.3       1 <0>        -0.0479
     19 C15        10.3586   -1.5521   -0.0423 C.3       1 <0>        -0.1091
     20 C16        10.1919   -2.7736   -0.9502 C.3       1 <0>        -0.1163
     21 C17         8.9700   -3.5827   -0.4986 C.3       1 <0>        -0.0455
     22 C18         5.8592   -4.3497   -0.3246 C.3       1 <0>        -0.0330
     23 C19         5.5578   -4.7291   -1.7758 C.3       1 <0>        -0.1711
     24 C20         4.9652   -6.1139   -1.8203 C.2       1 <0>         0.4907
     25 O3          4.7993   -6.7395   -0.7870 O.co2     1 <0>        -0.6993
     26 O4          4.6517   -6.6088   -2.8896 O.co2     1 <0>        -0.7101
     27 C21         4.5389    0.3133    1.6017 C.2       1 <0>         0.5577
     28 O5          5.7409    0.3260    1.7993 O.2       1 <0>        -0.5313
     29 N2          3.6396    1.1441    2.1548 N.am      1 <0>        -0.6486
     30 H2         -0.9742    1.4425    1.6917 H         1 <0>         0.1330
     31 H3          1.0867    2.2857    2.7093 H         1 <0>         0.1157
     32 H4          1.2715   -1.5284   -0.4428 H         1 <0>         0.1355
     33 H5          3.7016   -2.3174   -0.5660 H         1 <0>         0.1549
     34 H6          9.3739   -0.1047   -1.3069 H         1 <0>         0.0717
     35 H7          9.2426    0.2332    0.4384 H         1 <0>         0.0696
     36 H8         11.3220   -1.0818   -0.2396 H         1 <0>         0.0626
     37 H9         10.3148   -1.8661    1.0005 H         1 <0>         0.0656
     38 H10        10.0496   -2.4445   -1.9796 H         1 <0>         0.0621
     39 H11        11.0838   -3.3970   -0.8880 H         1 <0>         0.0608
     40 H12         9.1782   -4.0578    0.4601 H         1 <0>         0.0646
     41 H13         8.7380   -4.3440   -1.2434 H         1 <0>         0.0726
     42 H14         6.5681   -5.0620    0.0975 H         1 <0>         0.0691
     43 H15         4.9363   -4.3688    0.2551 H         1 <0>         0.0674
     44 H16         4.8488   -4.0168   -2.1978 H         1 <0>         0.0566
     45 H17         6.4807   -4.7100   -2.3555 H         1 <0>         0.0545
     46 H18         3.8624    1.8520    2.7793 H         1 <0>         0.4077
@<TRIPOS>BOND
     1    1    6 ar
     2    1    2 ar
     3    1   30 1
     4    2    3 ar
     5    2   31 1
     6    3   29 1
     7    3    4 ar
     8    4    5 ar
     9    4   10 1
    10    5    6 ar
    11    5   32 1
    12    6    7 1
    13    7    8 2
    14    7    9 1
    15   10   11 2
    16   10   27 1
    17   11   12 1
    18   11   33 1
    19   12   16 1
    20   12   13 2
    21   13   14 1
    22   13   22 1
    23   14   21 1
    24   14   15 2
    25   15   16 1
    26   15   18 1
    27   16   17 1
    28   18   19 1
    29   18   34 1
    30   18   35 1
    31   19   20 1
    32   19   36 1
    33   19   37 1
    34   20   21 1
    35   20   38 1
    36   20   39 1
    37   21   40 1
    38   21   41 1
    39   22   23 1
    40   22   42 1
    41   22   43 1
    42   23   24 1
    43   23   44 1
    44   23   45 1
    45   24   25 2
    46   24   26 1
    47   27   28 2
    48   27   29 am
    49   29   46 1
@<TRIPOS>MOLECULE
CHEMBL362486
   56    59     0     0     0
SMALL
USER_CHARGES

@<TRIPOS>ATOM
      1 C1         -0.9156   -0.4961   -4.9071 C.3       1 <0>         0.0260
      2 O1         -1.2406    0.0526   -3.6283 O.3       1 <0>        -0.3171
      3 C2         -2.1929   -0.5929   -2.9036 C.ar      1 <0>         0.1159
      4 C3         -2.7964   -1.7337   -3.4120 C.ar      1 <0>        -0.1874
      5 C4         -3.7640   -2.3896   -2.6767 C.ar      1 <0>        -0.0770
      6 C5         -4.1323   -1.9072   -1.4280 C.ar      1 <0>         0.1200
      7 C6         -3.5276   -0.7656   -0.9195 C.ar      1 <0>        -0.1025
      8 C7         -2.5564   -0.1136   -1.6536 C.ar      1 <0>        -0.1315
      9 N1         -5.1145   -2.5720   -0.6814 N.am      1 <0>        -0.6767
     10 C8         -5.2324   -3.9120   -0.7648 C.2       1 <0>         0.7042
     11 O2         -4.4281   -4.5539   -1.4127 O.2       1 <0>        -0.5511
     12 N2         -6.2418   -4.5404   -0.1302 N.am      1 <0>        -0.6837
     13 C9         -6.3036   -5.9405   -0.1269 C.ar      1 <0>         0.2020
     14 C10        -5.1326   -6.6870   -0.1172 C.ar      1 <0>        -0.1294
     15 C11        -5.1931   -8.0660   -0.1139 C.ar      1 <0>        -0.0407
     16 C12        -6.4257   -8.7071   -0.1199 C.ar      1 <0>        -0.1696
     17 C13        -7.5970   -7.9599   -0.1292 C.ar      1 <0>        -0.0371
     18 C14        -7.5358   -6.5809   -0.1276 C.ar      1 <0>        -0.1554
     19 S1         -6.5034  -10.4674   -0.1163 S.3       1 <0>         0.0241
     20 C15        -6.3807  -10.9030   -1.8191 C.ar      1 <0>        -0.0459
     21 C16        -6.1528   -9.9380   -2.7900 C.ar      1 <0>        -0.1826
     22 C17        -6.0607  -10.3123   -4.1224 C.ar      1 <0>         0.1440
     23 N3         -6.1837  -11.5640   -4.5008 N.ar      1 <0>        -0.4783
     24 C18        -6.4045  -12.5468   -3.6192 C.ar      1 <0>         0.1544
     25 C19        -6.5055  -12.2485   -2.2390 C.ar      1 <0>        -0.0716
     26 C20        -6.7318  -13.2806   -1.3169 C.ar      1 <0>        -0.1707
     27 C21        -6.8475  -14.5673   -1.7579 C.ar      1 <0>         0.1270
     28 C22        -6.7423  -14.8671   -3.1236 C.ar      1 <0>         0.1422
     29 C23        -6.5338  -13.8799   -4.0432 C.ar      1 <0>        -0.1714
     30 O3         -6.8610  -16.1557   -3.5383 O.3       1 <0>        -0.3005
     31 C24        -6.7447  -16.3989   -4.9417 C.3       1 <0>         0.0214
     32 O4         -7.0664  -15.5683   -0.8638 O.3       1 <0>        -0.3006
     33 C25        -7.1635  -15.1985    0.5131 C.3       1 <0>         0.0213
     34 H1         -0.1442    0.1130   -5.3784 H         1 <0>         0.1016
     35 H2         -0.5484   -1.5148   -4.7827 H         1 <0>         0.0566
     36 H3         -1.8060   -0.5050   -5.5356 H         1 <0>         0.0563
     37 H4         -2.5098   -2.1089   -4.3833 H         1 <0>         0.1326
     38 H5         -4.2343   -3.2774   -3.0729 H         1 <0>         0.1389
     39 H6         -3.8137   -0.3898    0.0518 H         1 <0>         0.1338
     40 H7         -2.0830    0.7721   -1.2564 H         1 <0>         0.1370
     41 H8         -5.7094   -2.0677   -0.1046 H         1 <0>         0.4093
     42 H9         -6.9254   -4.0237    0.3242 H         1 <0>         0.4121
     43 H10        -4.1745   -6.1885   -0.1125 H         1 <0>         0.1451
     44 H11        -4.2824   -8.6465   -0.1070 H         1 <0>         0.1369
     45 H12        -8.5553   -8.4579   -0.1339 H         1 <0>         0.1387
     46 H13        -8.4462   -6.0000   -0.1306 H         1 <0>         0.1353
     47 H14        -6.0481   -8.9004   -2.5095 H         1 <0>         0.1364
     48 H15        -5.8831   -9.5531   -4.8697 H         1 <0>         0.1605
     49 H16        -6.8137  -13.0586   -0.2632 H         1 <0>         0.1461
     50 H17        -6.4551  -14.1247   -5.0922 H         1 <0>         0.1523
     51 H18        -6.8585  -17.4653   -5.1363 H         1 <0>         0.1055
     52 H19        -7.5219  -15.8480   -5.4715 H         1 <0>         0.0601
     53 H20        -5.7652  -16.0689   -5.2877 H         1 <0>         0.0601
     54 H21        -6.2348  -14.7226    0.8279 H         1 <0>         0.0588
     55 H22        -7.9915  -14.5019    0.6447 H         1 <0>         0.0590
     56 H23        -7.3383  -16.0890    1.1170 H         1 <0>         0.1057
@<TRIPOS>BOND
     1    1    2 1
     2    1   34 1
     3    1   35 1
     4    1   36 1
     5    2    3 1
     6    3    8 ar
     7    3    4 ar
     8    4    5 ar
     9    4   37 1
    10    5    6 ar
    11    5   38 1
    12    6    7 ar
    13    6    9 1
    14    7    8 ar
    15    7   39 1
    16    8   40 1
    17    9   10 am
    18    9   41 1
    19   10   11 2
    20   10   12 am
    21   12   13 1
    22   12   42 1
    23   13   18 ar
    24   13   14 ar
    25   14   15 ar
    26   14   43 1
    27   15   16 ar
    28   15   44 1
    29   16   17 ar
    30   16   19 1
    31   17   18 ar
    32   17   45 1
    33   18   46 1
    34   19   20 1
    35   20   25 ar
    36   20   21 ar
    37   21   22 ar
    38   21   47 1
    39   22   23 ar
    40   22   48 1
    41   23   24 ar
    42   24   29 ar
    43   24   25 ar
    44   25   26 ar
    45   26   27 ar
    46   26   49 1
    47   27   28 ar
    48   27   32 1
    49   28   29 ar
    50   28   30 1
    51   29   50 1
    52   30   31 1
    53   31   51 1
    54   31   52 1
    55   31   53 1
    56   32   33 1
    57   33   54 1
    58   33   55 1
    59   33   56 1
@<TRIPOS>MOLECULE
CHEMBL404639
   55    59     0     0     0
SMALL
USER_CHARGES

@<TRIPOS>ATOM
      1 C1         10.8468    0.9822   -3.5872 C.ar      1 <0>        -0.1129
      2 C2         10.7651   -0.3968   -3.5378 C.ar      1 <0>        -0.1181
      3 C3          9.7513   -1.0040   -2.8205 C.ar      1 <0>        -0.1014
      4 C4          8.8195   -0.2320   -2.1522 C.ar      1 <0>        -0.0803
      5 C5          8.9017    1.1470   -2.2008 C.ar      1 <0>        -0.1014
      6 C6          9.9147    1.7541   -2.9193 C.ar      1 <0>        -0.1181
      7 C7          7.7137   -0.8939   -1.3711 C.3       1 <0>        -0.0930
      8 C8          8.1683   -1.1232    0.0473 C.2       1 <0>         0.4822
      9 O1          9.2804   -0.7828    0.3900 O.2       1 <0>        -0.3884
     10 N1          7.3387   -1.7067    0.9349 N.am      1 <0>        -0.6409
     11 C9          7.7453   -1.9118    2.2034 C.2       1 <0>         0.5053
     12 S1          9.3156   -1.4312    2.6872 S.2       1 <0>        -0.4713
     13 N2          6.9157   -2.4952    3.0909 N.pl3     1 <0>        -0.6249
     14 C10         7.3760   -2.8147    4.3745 C.ar      1 <0>         0.1650
     15 C11         6.5607   -2.6001    5.4780 C.ar      1 <0>        -0.1174
     16 C12         7.0142   -2.9150    6.7439 C.ar      1 <0>        -0.0794
     17 C13         8.2840   -3.4459    6.9144 C.ar      1 <0>         0.0449
     18 C14         9.1010   -3.6612    5.8114 C.ar      1 <0>         0.1095
     19 C15         8.6453   -3.3515    4.5433 C.ar      1 <0>        -0.1024
     20 F1         10.3381   -4.1780    5.9775 F         1 <0>        -0.1183
     21 O2          8.7298   -3.7552    8.1614 O.3       1 <0>        -0.2378
     22 C16         9.4950   -2.8405    8.8098 C.ar      1 <0>         0.2090
     23 C17         9.8935   -1.6628    8.1817 C.ar      1 <0>        -0.2289
     24 C18        10.6736   -0.7672    8.8949 C.ar      1 <0>         0.1598
     25 N3         11.0457   -0.9897   10.1294 N.ar      1 <0>        -0.4719
     26 C19        10.6991   -2.1088   10.8062 C.ar      1 <0>         0.1520
     27 C20         9.8988   -3.0462   10.1174 C.ar      1 <0>        -0.2015
     28 S2          9.6531   -4.3382   11.3080 S.3       1 <0>         0.1137
     29 C21        10.5821   -3.6260   12.6552 C.2       1 <0>        -0.0728
     30 C22        11.0348   -2.4601   12.1271 C.2       1 <0>        -0.1007
     31 C23        10.8126   -4.1760   14.0079 C.ar      1 <0>         0.1992
     32 C24        10.2698   -5.4142   14.3536 C.ar      1 <0>        -0.1512
     33 C25        10.4946   -5.9153   15.6234 C.ar      1 <0>        -0.0685
     34 C26        11.2550   -5.1628   16.5081 C.ar      1 <0>        -0.1650
     35 C27        11.7629   -3.9433   16.0996 C.ar      1 <0>         0.1101
     36 N4         11.5393   -3.4904   14.8829 N.ar      1 <0>        -0.4674
     37 H1         11.6415    1.4565   -4.1439 H         1 <0>         0.1233
     38 H2         11.4932   -0.9999   -4.0599 H         1 <0>         0.1238
     39 H3          9.6871   -2.0814   -2.7825 H         1 <0>         0.1202
     40 H4          8.1734    1.7501   -1.6790 H         1 <0>         0.1202
     41 H5          9.9786    2.8316   -2.9576 H         1 <0>         0.1239
     42 H6          6.8336   -0.2508   -1.3710 H         1 <0>         0.1093
     43 H7          7.4651   -1.8498   -1.8320 H         1 <0>         0.1092
     44 H8          6.4490   -1.9790    0.6607 H         1 <0>         0.4126
     45 H9          5.9998   -2.6939    2.8407 H         1 <0>         0.4132
     46 H10         5.5718   -2.1864    5.3463 H         1 <0>         0.1454
     47 H11         6.3797   -2.7475    7.6017 H         1 <0>         0.1519
     48 H12         9.2781   -3.5227    3.6850 H         1 <0>         0.1637
     49 H13         9.6017   -1.4531    7.1632 H         1 <0>         0.1515
     50 H14        10.9862    0.1481    8.4143 H         1 <0>         0.1693
     51 H15        11.6413   -1.7959   12.7250 H         1 <0>         0.1588
     52 H16         9.6824   -5.9731   13.6402 H         1 <0>         0.1380
     53 H17        10.0871   -6.8705   15.9199 H         1 <0>         0.1426
     54 H18        11.4479   -5.5265   17.5066 H         1 <0>         0.1417
     55 H19        12.3548   -3.3561   16.7860 H         1 <0>         0.1647
@<TRIPOS>BOND
     1    1    6 ar
     2    1    2 ar
     3    1   37 1
     4    2    3 ar
     5    2   38 1
     6    3    4 ar
     7    3   39 1
     8    4    5 ar
     9    4    7 1
    10    5    6 ar
    11    5   40 1
    12    6   41 1
    13    7    8 1
    14    7   42 1
    15    7   43 1
    16    8    9 2
    17    8   10 am
    18   10   11 1
    19   10   44 1
    20   11   12 2
    21   11   13 1
    22   13   14 1
    23   13   45 1
    24   14   19 ar
    25   14   15 ar
    26   15   16 ar
    27   15   46 1
    28   16   17 ar
    29   16   47 1
    30   17   18 ar
    31   17   21 1
    32   18   19 ar
    33   18   20 1
    34   19   48 1
    35   21   22 1
    36   22   27 ar
    37   22   23 ar
    38   23   24 ar
    39   23   49 1
    40   24   25 ar
    41   24   50 1
    42   25   26 ar
    43   26   30 1
    44   26   27 ar
    45   27   28 1
    46   28   29 1
    47   29   30 2
    48   29   31 1
    49   30   51 1
    50   31   36 ar
    51   31   32 ar
    52   32   33 ar
    53   32   52 1
    54   33   34 ar
    55   33   53 1
    56   34   35 ar
    57   34   54 1
    58   35   36 ar
    59   35   55 1
@<TRIPOS>MOLECULE
CHEMBL489326
   61    65     0     0     0
SMALL
USER_CHARGES

@<TRIPOS>ATOM
      1 C1          2.8368    1.4083    1.2950 C.3       1 <0>         0.0227
      2 O1          2.0301    0.2309    1.2236 O.3       1 <0>        -0.3012
      3 C2          1.6946   -0.2133   -0.0171 C.ar      1 <0>         0.1147
      4 C3          2.1350    0.4621   -1.1185 C.ar      1 <0>        -0.1546
      5 C4          1.7893    0.0034   -2.3984 C.ar      1 <0>        -0.1046
      6 C5          2.2271    0.6762   -3.5614 C.ar      1 <0>         0.1805
      7 C6          1.8462    0.1642   -4.7893 C.ar      1 <0>        -0.2651
      8 C7          1.0572   -0.9777   -4.8447 C.ar      1 <0>         0.1655
      9 N1          0.6560   -1.5950   -3.7583 N.ar      1 <0>        -0.4914
     10 C8          0.9869   -1.1552   -2.5382 C.ar      1 <0>         0.1718
     11 C9          0.5489   -1.8282   -1.3858 C.ar      1 <0>        -0.1794
     12 C10         0.9046   -1.3638   -0.1523 C.ar      1 <0>         0.1521
     13 O2          0.4831   -2.0221    0.9592 O.3       1 <0>        -0.2994
     14 C11        -0.3188   -3.1876    0.7579 C.3       1 <0>         0.0208
     15 O3          2.9965    1.7894   -3.4767 O.3       1 <0>        -0.2365
     16 C12         3.4408    2.3479   -4.6343 C.ar      1 <0>         0.0343
     17 C13         4.7307    2.0941   -5.0761 C.ar      1 <0>        -0.0686
     18 C14         5.1827    2.6605   -6.2518 C.ar      1 <0>        -0.1320
     19 C15         4.3462    3.4851   -6.9924 C.ar      1 <0>         0.1762
     20 C16         3.0547    3.7400   -6.5512 C.ar      1 <0>        -0.1390
     21 C17         2.6006    3.1681   -5.3771 C.ar      1 <0>         0.1167
     22 F1          1.3424    3.4113   -4.9494 F         1 <0>        -0.1188
     23 N2          4.8055    4.0601   -8.1843 N.am      1 <0>        -0.6731
     24 C18         4.5257    5.3489   -8.4624 C.2       1 <0>         0.5587
     25 O4          3.7801    5.9769   -7.7408 O.2       1 <0>        -0.4873
     26 C19         5.1393    6.0095   -9.6699 C.3       1 <0>        -0.2081
     27 C20         6.5153    6.6562   -9.4986 C.3       1 <0>        -0.1301
     28 C21         5.2712    7.5337   -9.6506 C.3       1 <0>        -0.1035
     29 C22         4.8380    5.3538  -10.9929 C.2       1 <0>         0.5572
     30 O5          4.3375    5.9993  -11.8896 O.2       1 <0>        -0.4896
     31 N3          5.1247    4.0502  -11.1798 N.am      1 <0>        -0.6702
     32 C23         4.9771    3.4757  -12.4482 C.ar      1 <0>         0.1293
     33 C24         5.3011    4.2057  -13.5840 C.ar      1 <0>        -0.0862
     34 C25         5.1547    3.6372  -14.8342 C.ar      1 <0>        -0.1320
     35 C26         4.6847    2.3403  -14.9554 C.ar      1 <0>         0.0916
     36 C27         4.3610    1.6106  -13.8239 C.ar      1 <0>        -0.1323
     37 C28         4.5118    2.1733  -12.5716 C.ar      1 <0>        -0.1106
     38 F2          4.5414    1.7863  -16.1792 F         1 <0>        -0.1360
     39 H1          3.7820    1.2328    0.7813 H         1 <0>         0.0580
     40 H2          2.3129    2.2371    0.8189 H         1 <0>         0.0584
     41 H3          3.0308    1.6530    2.3393 H         1 <0>         0.1053
     42 H4          2.7462    1.3453   -1.0053 H         1 <0>         0.1490
     43 H5          2.1608    0.6507   -5.7008 H         1 <0>         0.1370
     44 H6          0.7656   -1.3682   -5.8085 H         1 <0>         0.1633
     45 H7         -0.0636   -2.7133   -1.4753 H         1 <0>         0.1547
     46 H8         -0.5866   -3.6156    1.7239 H         1 <0>         0.1060
     47 H9         -1.2253   -2.9160    0.2170 H         1 <0>         0.0609
     48 H10         0.2438   -3.9203    0.1793 H         1 <0>         0.0609
     49 H11         5.3822    1.4535   -4.5003 H         1 <0>         0.1522
     50 H12         6.1873    2.4623   -6.5951 H         1 <0>         0.1477
     51 H13         2.4038    4.3815   -7.1267 H         1 <0>         0.1556
     52 H14         5.3248    3.5307   -8.8096 H         1 <0>         0.4070
     53 H15         6.9768    6.6037   -8.5124 H         1 <0>         0.1162
     54 H16         7.2030    6.6073  -10.3428 H         1 <0>         0.1166
     55 H17         5.1405    8.0622  -10.5949 H         1 <0>         0.1224
     56 H18         4.9142    8.0586   -8.7646 H         1 <0>         0.1212
     57 H19         5.4333    3.5100  -10.4356 H         1 <0>         0.4018
     58 H20         5.6670    5.2174  -13.4900 H         1 <0>         0.1407
     59 H21         5.4066    4.2047  -15.7179 H         1 <0>         0.1426
     60 H22         3.9943    0.5994  -13.9205 H         1 <0>         0.1432
     61 H23         4.2635    1.6023  -11.6891 H         1 <0>         0.1373
@<TRIPOS>BOND
     1    1    2 1
     2    1   39 1
     3    1   40 1
     4    1   41 1
     5    2    3 1
     6    3   12 ar
     7    3    4 ar
     8    4    5 ar
     9    4   42 1
    10    5   10 ar
    11    5    6 ar
    12    6    7 ar
    13    6   15 1
    14    7    8 ar
    15    7   43 1
    16    8    9 ar
    17    8   44 1
    18    9   10 ar
    19   10   11 ar
    20   11   12 ar
    21   11   45 1
    22   12   13 1
    23   13   14 1
    24   14   46 1
    25   14   47 1
    26   14   48 1
    27   15   16 1
    28   16   21 ar
    29   16   17 ar
    30   17   18 ar
    31   17   49 1
    32   18   19 ar
    33   18   50 1
    34   19   20 ar
    35   19   23 1
    36   20   21 ar
    37   20   51 1
    38   21   22 1
    39   23   24 am
    40   23   52 1
    41   24   25 2
    42   24   26 1
    43   26   28 1
    44   26   27 1
    45   26   29 1
    46   27   28 1
    47   27   53 1
    48   27   54 1
    49   28   55 1
    50   28   56 1
    51   29   30 2
    52   29   31 am
    53   31   32 1
    54   31   57 1
    55   32   37 ar
    56   32   33 ar
    57   33   34 ar
    58   33   58 1
    59   34   35 ar
    60   34   59 1
    61   35   36 ar
    62   35   38 1
    63   36   37 ar
    64   36   60 1
    65   37   61 1
@<TRIPOS>MOLECULE
CHEMBL411520
   62    68     0     0     0
SMALL
USER_CHARGES

@<TRIPOS>ATOM
      1 C1          1.4533   -2.3448   -2.6974 C.3       1 <0>        -0.1676
      2 C2          0.4905   -1.1667   -2.5363 C.3       1 <0>        -0.1149
      3 C3         -0.9479   -1.6546   -2.7210 C.3       1 <0>        -0.1483
      4 C4          0.6495   -0.5655   -1.1384 C.3       1 <0>         0.0934
      5 N1          2.0067   -0.0351   -0.9864 N.pl3     1 <0>        -0.4870
      6 C5          2.3957    1.2270   -1.3399 C.ar      1 <0>         0.1726
      7 C6          1.6704    2.2825   -1.8990 C.ar      1 <0>        -0.1419
      8 C7          2.3453    3.4490   -2.1482 C.ar      1 <0>        -0.0317
      9 C8          3.7054    3.5991   -1.8626 C.ar      1 <0>        -0.1862
     10 C9          4.4531    2.5552   -1.3007 C.ar      1 <0>        -0.0270
     11 C10         3.7723    1.3709   -1.0444 C.ar      1 <0>        -0.1084
     12 C11         4.2125    0.0967   -0.4688 C.ar      1 <0>        -0.0953
     13 C12         3.0760   -0.7388   -0.4589 C.ar      1 <0>         0.1844
     14 C13         3.1695   -2.0332    0.0468 C.ar      1 <0>        -0.1119
     15 C14         4.3978   -2.4985    0.5056 C.ar      1 <0>         0.1284
     16 C15         5.5272   -1.6625    0.5270 C.ar      1 <0>        -0.1916
     17 C16         5.4223   -0.3654    0.0247 C.ar      1 <0>        -0.0187
     18 C17         6.7845    0.2636    0.1785 C.3       1 <0>         0.1369
     19 N2          7.6432   -0.7638    0.7787 N.am      1 <0>        -0.7196
     20 C18         6.9092   -1.8696    0.9863 C.2       1 <0>         0.5765
     21 O1          7.3313   -2.9011    1.4731 O.2       1 <0>        -0.5314
     22 C19         4.4763   -3.9163    0.9215 C.2       1 <0>        -0.2433
     23 C20         5.4198   -4.6056    1.5963 C.2       1 <0>         0.1048
     24 N3          4.9757   -5.8765    1.7253 N.pl3     1 <0>        -0.3858
     25 N4          3.7205   -5.9717    1.1027 N.2       1 <0>        -0.2889
     26 C21         3.4167   -4.8145    0.6128 C.2       1 <0>         0.0937
     27 C22         2.2138   -4.3628   -0.1749 C.3       1 <0>        -0.0344
     28 C23         1.9359   -2.8905    0.1172 C.3       1 <0>        -0.1005
     29 C24         5.6834   -6.9678    2.3994 C.3       1 <0>         0.1026
     30 C25         4.3683    4.8838   -2.1596 C.2       1 <0>         0.4671
     31 O2          3.7236    5.9154   -2.1589 O.2       1 <0>        -0.4499
     32 C26         5.8107    4.9170   -2.4569 C.2       1 <0>        -0.2572
     33 C27         6.6529    6.1078   -2.6434 C.2       1 <0>        -0.1709
     34 C28         7.8891    5.6500   -2.8924 C.2       1 <0>        -0.0369
     35 O3          7.8740    4.3080   -2.8741 O.3       1 <0>        -0.1724
     36 C29         6.6469    3.8481   -2.6111 C.2       1 <0>         0.0251
     37 H1          2.4608   -2.0304   -2.4252 H         1 <0>         0.0618
     38 H2          1.1396   -3.1618   -2.0477 H         1 <0>         0.0706
     39 H3          1.4453   -2.6814   -3.7341 H         1 <0>         0.0609
     40 H4          0.7159   -0.4081   -3.2859 H         1 <0>         0.0794
     41 H5         -1.1733   -2.4132   -1.9715 H         1 <0>         0.0603
     42 H6         -1.6338   -0.8153   -2.6063 H         1 <0>         0.0595
     43 H7         -1.0612   -2.0828   -3.7170 H         1 <0>         0.0650
     44 H8         -0.0725    0.2401   -1.0050 H         1 <0>         0.0939
     45 H9          0.4751   -1.3375   -0.3889 H         1 <0>         0.1089
     46 H10         0.6193    2.1827   -2.1261 H         1 <0>         0.1394
     47 H11         1.8081    4.2803   -2.5803 H         1 <0>         0.1358
     48 H12         5.5042    2.6654   -1.0786 H         1 <0>         0.1415
     49 H13         7.1748    0.5558   -0.7964 H         1 <0>         0.1010
     50 H14         6.7244    1.1321    0.8345 H         1 <0>         0.1023
     51 H15         8.5813   -0.6574    1.0017 H         1 <0>         0.4279
     52 H16         6.3568   -4.2149    1.9648 H         1 <0>         0.2205
     53 H17         2.4079   -4.4914   -1.2397 H         1 <0>         0.0899
     54 H18         1.3476   -4.9596    0.1109 H         1 <0>         0.0903
     55 H19         1.5066   -2.8060    1.1156 H         1 <0>         0.0796
     56 H20         1.2098   -2.5203   -0.6066 H         1 <0>         0.1076
     57 H21         5.4008   -6.9885    3.4520 H         1 <0>         0.0751
     58 H22         5.4172   -7.9163    1.9330 H         1 <0>         0.0891
     59 H23         6.7587   -6.8105    2.3149 H         1 <0>         0.0904
     60 H24         6.3401    7.1402   -2.5911 H         1 <0>         0.1599
     61 H25         8.7581    6.2637   -3.0784 H         1 <0>         0.2099
     62 H26         6.3642    2.8085   -2.5359 H         1 <0>         0.2158
@<TRIPOS>BOND
     1    1    2 1
     2    1   37 1
     3    1   38 1
     4    1   39 1
     5    2    3 1
     6    2    4 1
     7    2   40 1
     8    3   41 1
     9    3   42 1
    10    3   43 1
    11    4    5 1
    12    4   44 1
    13    4   45 1
    14    5   13 1
    15    5    6 1
    16    6   11 ar
    17    6    7 ar
    18    7    8 ar
    19    7   46 1
    20    8    9 ar
    21    8   47 1
    22    9   10 ar
    23    9   30 1
    24   10   11 ar
    25   10   48 1
    26   11   12 1
    27   12   17 ar
    28   12   13 ar
    29   13   14 ar
    30   14   28 1
    31   14   15 ar
    32   15   16 ar
    33   15   22 1
    34   16   20 1
    35   16   17 ar
    36   17   18 1
    37   18   19 1
    38   18   49 1
    39   18   50 1
    40   19   20 am
    41   19   51 1
    42   20   21 2
    43   22   26 1
    44   22   23 2
    45   23   24 1
    46   23   52 1
    47   24   25 1
    48   24   29 1
    49   25   26 2
    50   26   27 1
    51   27   28 1
    52   27   53 1
    53   27   54 1
    54   28   55 1
    55   28   56 1
    56   29   57 1
    57   29   58 1
    58   29   59 1
    59   30   31 2
    60   30   32 1
    61   32   36 2
    62   32   33 1
    63   33   34 2
    64   33   60 1
    65   34   35 1
    66   34   61 1
    67   35   36 1
    68   36   62 1
@<TRIPOS>MOLECULE
CHEMBL410100
   62    68     0     0     0
SMALL
USER_CHARGES

@<TRIPOS>ATOM
      1 C1         -3.0985   -2.3372    0.3146 C.3       1 <0>        -0.1678
      2 C2         -2.4178   -1.1459    0.9914 C.3       1 <0>        -0.1152
      3 C3         -1.7859   -1.6003    2.3087 C.3       1 <0>        -0.1480
      4 C4         -1.3309   -0.5884    0.0701 C.3       1 <0>         0.0935
      5 N1         -1.9427   -0.1057   -1.1705 N.pl3     1 <0>        -0.4868
      6 C5         -2.4405    1.1543   -1.3572 C.ar      1 <0>         0.1794
      7 C6         -2.5041    2.2480   -0.4899 C.ar      1 <0>        -0.1509
      8 C7         -3.0676    3.4015   -0.9699 C.ar      1 <0>        -0.0246
      9 C8         -3.5658    3.5021   -2.2718 C.ar      1 <0>        -0.2026
     10 C9         -3.5143    2.4188   -3.1590 C.ar      1 <0>         0.0000
     11 C10        -2.9433    1.2467   -2.6768 C.ar      1 <0>        -0.1171
     12 C11        -2.7207   -0.0602   -3.3023 C.ar      1 <0>        -0.0914
     13 C12        -2.0939   -0.8584   -2.3227 C.ar      1 <0>         0.1822
     14 C13        -1.7303   -2.1690   -2.6227 C.ar      1 <0>        -0.1114
     15 C14        -2.0274   -2.6883   -3.8787 C.ar      1 <0>         0.1267
     16 C15        -2.6326   -1.8930   -4.8668 C.ar      1 <0>        -0.1918
     17 C16        -2.9848   -0.5785   -4.5601 C.ar      1 <0>        -0.0180
     18 C17        -3.6117   -0.0023   -5.8052 C.3       1 <0>         0.1380
     19 N2         -3.5973   -1.0772   -6.8042 N.am      1 <0>        -0.7203
     20 C18        -3.0203   -2.1618   -6.2601 C.2       1 <0>         0.5766
     21 O1         -2.8545   -3.2209   -6.8343 O.2       1 <0>        -0.5321
     22 C19        -1.7257   -4.1177   -4.1129 C.2       1 <0>        -0.2422
     23 C20        -1.6799   -4.8552   -5.2416 C.2       1 <0>         0.1050
     24 N3         -1.3311   -6.1131   -4.8878 N.pl3     1 <0>        -0.3861
     25 N4         -1.1630   -6.1496   -3.4941 N.2       1 <0>        -0.2889
     26 C21        -1.4036   -4.9710   -3.0207 C.2       1 <0>         0.0935
     27 C22        -1.4003   -4.4583   -1.6034 C.3       1 <0>        -0.0344
     28 C23        -0.9970   -2.9859   -1.5950 C.3       1 <0>        -0.1000
     29 C24        -1.1585   -7.2445   -5.8023 C.3       1 <0>         0.1029
     30 C25        -4.1597    4.7771   -2.7218 C.2       1 <0>         0.4824
     31 O2         -4.3126    5.6901   -1.9309 O.2       1 <0>        -0.4398
     32 C26        -4.5647    4.9434   -4.1199 C.2       1 <0>        -0.0991
     33 C27        -5.0312    6.0958   -4.6900 C.2       1 <0>        -0.1165
     34 C28        -5.2949    5.8015   -6.0358 C.2       1 <0>        -0.2245
     35 C29        -4.9825    4.4998   -6.2275 C.2       1 <0>        -0.0053
     36 O3         -4.5376    3.9883   -5.0724 O.3       1 <0>        -0.1589
     37 H1         -3.9640   -2.6432    0.9022 H         1 <0>         0.0608
     38 H2         -3.4217   -2.0506   -0.6862 H         1 <0>         0.0617
     39 H3         -2.3947   -3.1667    0.2455 H         1 <0>         0.0706
     40 H4         -3.1573   -0.3705    1.1916 H         1 <0>         0.0796
     41 H5         -1.0465   -2.3757    2.1085 H         1 <0>         0.0602
     42 H6         -1.3010   -0.7515    2.7909 H         1 <0>         0.0595
     43 H7         -2.5602   -1.9974    2.9651 H         1 <0>         0.0649
     44 H8         -0.8201    0.2358    0.5679 H         1 <0>         0.0941
     45 H9         -0.6123   -1.3746   -0.1612 H         1 <0>         0.1089
     46 H10        -2.1244    2.1866    0.5193 H         1 <0>         0.1396
     47 H11        -3.1290    4.2618   -0.3198 H         1 <0>         0.1384
     48 H12        -3.8988    2.4906   -4.1657 H         1 <0>         0.1534
     49 H13        -4.6371    0.3057   -5.6006 H         1 <0>         0.1022
     50 H14        -3.0282    0.8473   -6.1600 H         1 <0>         0.1020
     51 H15        -3.9349   -1.0110   -7.7111 H         1 <0>         0.4271
     52 H16        -1.8847   -4.5059   -6.2429 H         1 <0>         0.2196
     53 H17        -2.3976   -4.5642   -1.1765 H         1 <0>         0.0899
     54 H18        -0.6887   -5.0333   -1.0108 H         1 <0>         0.0902
     55 H19         0.0733   -2.9143   -1.7887 H         1 <0>         0.0796
     56 H20        -1.2007   -2.5720   -0.6074 H         1 <0>         0.1073
     57 H21        -0.1237   -7.2819   -6.1427 H         1 <0>         0.0749
     58 H22        -1.4042   -8.1713   -5.2840 H         1 <0>         0.0890
     59 H23        -1.8191   -7.1220   -6.6605 H         1 <0>         0.0902
     60 H24        -5.1700    7.0477   -4.1991 H         1 <0>         0.1605
     61 H25        -5.6759    6.4859   -6.7793 H         1 <0>         0.1578
     62 H26        -5.0728    3.9622   -7.1599 H         1 <0>         0.2119
@<TRIPOS>BOND
     1    1    2 1
     2    1   37 1
     3    1   38 1
     4    1   39 1
     5    2    3 1
     6    2    4 1
     7    2   40 1
     8    3   41 1
     9    3   42 1
    10    3   43 1
    11    4    5 1
    12    4   44 1
    13    4   45 1
    14    5   13 1
    15    5    6 1
    16    6   11 ar
    17    6    7 ar
    18    7    8 ar
    19    7   46 1
    20    8    9 ar
    21    8   47 1
    22    9   10 ar
    23    9   30 1
    24   10   11 ar
    25   10   48 1
    26   11   12 1
    27   12   17 ar
    28   12   13 ar
    29   13   14 ar
    30   14   28 1
    31   14   15 ar
    32   15   16 ar
    33   15   22 1
    34   16   20 1
    35   16   17 ar
    36   17   18 1
    37   18   19 1
    38   18   49 1
    39   18   50 1
    40   19   20 am
    41   19   51 1
    42   20   21 2
    43   22   26 1
    44   22   23 2
    45   23   24 1
    46   23   52 1
    47   24   25 1
    48   24   29 1
    49   25   26 2
    50   26   27 1
    51   27   28 1
    52   27   53 1
    53   27   54 1
    54   28   55 1
    55   28   56 1
    56   29   57 1
    57   29   58 1
    58   29   59 1
    59   30   31 2
    60   30   32 1
    61   32   36 1
    62   32   33 2
    63   33   34 1
    64   33   60 1
    65   34   35 2
    66   34   61 1
    67   35   36 1
    68   35   62 1
@<TRIPOS>MOLECULE
CHEMBL212128
   51    54     0     0     0
SMALL
USER_CHARGES

@<TRIPOS>ATOM
      1 C1         -0.0443    1.5022    0.0287 C.3       1 <0>        -0.1191
      2 C2         -0.0170   -0.0045    0.0155 C.ar      1 <0>        -0.0813
      3 C3         -0.0041   -0.6841   -1.1864 C.ar      1 <0>        -0.0989
      4 C4          0.0214   -2.0655   -1.2035 C.ar      1 <0>        -0.1348
      5 C5          0.0342   -2.7789   -0.0107 C.ar      1 <0>         0.1360
      6 C6          0.0213   -2.1040    1.2004 C.ar      1 <0>        -0.1015
      7 C7          0.0010   -0.7115    1.2166 C.ar      1 <0>        -0.0295
      8 C8         -0.0072    0.0172    2.5088 C.ar      1 <0>        -0.0694
      9 C9          0.9047    1.0626    2.7243 C.ar      1 <0>        -0.0495
     10 C10         0.9193    1.7467    3.8990 C.ar      1 <0>        -0.1217
     11 C11         0.0128    1.4100    4.9165 C.ar      1 <0>         0.2161
     12 C12        -0.9135    0.3549    4.7084 C.ar      1 <0>        -0.2133
     13 C13        -0.9171   -0.3353    3.4896 C.ar      1 <0>        -0.0385
     14 C14        -1.8117    0.0384    5.7455 C.ar      1 <0>         0.2428
     15 N1         -1.7527    0.7344    6.8614 N.ar      1 <0>        -0.5591
     16 C15        -0.8702    1.7185    7.0226 C.ar      1 <0>         0.5676
     17 N2         -0.0053    2.0593    6.0870 N.ar      1 <0>        -0.5735
     18 N3         -0.8605    2.4117    8.2195 N.pl3     1 <0>        -0.7015
     19 C16        -1.8089    2.0578    9.2786 C.3       1 <0>         0.1044
     20 N4          0.0595   -4.1772   -0.0321 N.am      1 <0>        -0.6672
     21 C17         0.7430   -4.8533    0.9124 C.2       1 <0>         0.5609
     22 O1          1.2671   -4.2528    1.8303 O.2       1 <0>        -0.5064
     23 C18         0.8554   -6.3250    0.8322 C.ar      1 <0>        -0.1373
     24 C19         0.2596   -7.0171   -0.2238 C.ar      1 <0>        -0.0545
     25 C20         0.3683   -8.3904   -0.2927 C.ar      1 <0>        -0.1231
     26 C21         1.0655   -9.0822    0.6822 C.ar      1 <0>        -0.0432
     27 C22         1.6583   -8.4024    1.7312 C.ar      1 <0>        -0.1885
     28 C23         1.5625   -7.0282    1.8086 C.ar      1 <0>        -0.0073
     29 C24         2.4152   -9.1641    2.7885 C.3       1 <0>         0.5100
     30 F1          2.3787  -10.5314    2.4943 F         1 <0>        -0.1745
     31 F2          3.7443   -8.7283    2.8156 F         1 <0>        -0.1726
     32 F3          1.8254   -8.9399    4.0370 F         1 <0>        -0.1726
     33 H1          0.9766    1.8841    0.0275 H         1 <0>         0.0729
     34 H2         -0.5686    1.8638   -0.8559 H         1 <0>         0.0679
     35 H3         -0.5607    1.8484    0.9240 H         1 <0>         0.0710
     36 H4         -0.0143   -0.1342   -2.1159 H         1 <0>         0.1303
     37 H5          0.0311   -2.5923   -2.1463 H         1 <0>         0.1272
     38 H6          0.0313   -2.6563    2.1284 H         1 <0>         0.1425
     39 H7          1.6049    1.3270    1.9457 H         1 <0>         0.1341
     40 H8          1.6277    2.5480    4.0492 H         1 <0>         0.1391
     41 H9         -1.6201   -1.1372    3.3187 H         1 <0>         0.1342
     42 H10        -2.5328   -0.7570    5.6281 H         1 <0>         0.1776
     43 H11        -0.2258    3.1321    8.3576 H         1 <0>         0.4163
     44 H12        -1.6517    2.7080   10.1391 H         1 <0>         0.0769
     45 H13        -2.8274    2.1819    8.9107 H         1 <0>         0.0599
     46 H14        -1.6531    1.0202    9.5739 H         1 <0>         0.0600
     47 H15        -0.4148   -4.6603   -0.7268 H         1 <0>         0.4108
     48 H16        -0.2854   -6.4785   -0.9848 H         1 <0>         0.1372
     49 H17        -0.0922   -8.9270   -1.1090 H         1 <0>         0.1463
     50 H18         1.1470  -10.1575    0.6239 H         1 <0>         0.1472
     51 H19         2.0298   -6.4983    2.6255 H         1 <0>         0.1498
@<TRIPOS>BOND
     1    1    2 1
     2    1   33 1
     3    1   34 1
     4    1   35 1
     5    2    7 ar
     6    2    3 ar
     7    3    4 ar
     8    3   36 1
     9    4    5 ar
    10    4   37 1
    11    5    6 ar
    12    5   20 1
    13    6    7 ar
    14    6   38 1
    15    7    8 1
    16    8   13 ar
    17    8    9 ar
    18    9   10 ar
    19    9   39 1
    20   10   11 ar
    21   10   40 1
    22   11   17 ar
    23   11   12 ar
    24   12   13 ar
    25   12   14 ar
    26   13   41 1
    27   14   15 ar
    28   14   42 1
    29   15   16 ar
    30   16   17 ar
    31   16   18 1
    32   18   19 1
    33   18   43 1
    34   19   44 1
    35   19   45 1
    36   19   46 1
    37   20   21 am
    38   20   47 1
    39   21   22 2
    40   21   23 1
    41   23   28 ar
    42   23   24 ar
    43   24   25 ar
    44   24   48 1
    45   25   26 ar
    46   25   49 1
    47   26   27 ar
    48   26   50 1
    49   27   28 ar
    50   27   29 1
    51   28   51 1
    52   29   30 1
    53   29   31 1
    54   29   32 1
@<TRIPOS>MOLECULE
CHEMBL572881
   51    54     0     0     0
SMALL
USER_CHARGES

@<TRIPOS>ATOM
      1 C1          0.7468    1.4716   -0.2962 C.3       1 <0>        -0.1359
      2 C2         -0.0126    0.2109    0.1219 C.3       1 <0>        -0.0259
      3 C3         -1.3841    0.5810    0.7097 C.3       1 <0>         0.1241
      4 N1         -1.3578    0.0858    2.0884 N.pl3     1 <0>        -0.7443
      5 C4         -0.1308   -0.5237    2.3558 C.ar      1 <0>         0.2168
      6 C5          0.7087   -0.4891    1.2521 C.ar      1 <0>        -0.1719
      7 C6          1.9737   -1.0422    1.3132 C.ar      1 <0>        -0.0383
      8 C7          2.4173   -1.6377    2.4780 C.ar      1 <0>        -0.1686
      9 C8          1.5867   -1.6793    3.5908 C.ar      1 <0>         0.1899
     10 C9          0.3188   -1.1248    3.5317 C.ar      1 <0>        -0.2101
     11 N2          2.0314   -2.2815    4.7721 N.am      1 <0>        -0.6658
     12 C10         3.3340   -2.2177    5.1121 C.2       1 <0>         0.5798
     13 O1          4.1056   -1.5583    4.4423 O.2       1 <0>        -0.5258
     14 C11         3.8233   -2.9473    6.2957 C.ar      1 <0>        -0.2731
     15 C12         2.9747   -3.8049    7.0055 C.ar      1 <0>         0.0067
     16 C13         3.4823   -4.4663    8.1093 C.ar      1 <0>        -0.2465
     17 C14         4.8007   -4.2646    8.4781 C.ar      1 <0>         0.1892
     18 N3          5.5844   -3.4525    7.7964 N.ar      1 <0>        -0.5474
     19 C15         5.1519   -2.7990    6.7289 C.ar      1 <0>         0.4589
     20 N4          6.0106   -1.9622    6.0402 N.pl3     1 <0>        -0.6963
     21 C16         7.3594   -1.7126    6.5545 C.3       1 <0>         0.1647
     22 C17         8.0854   -0.7738    5.6257 C.ar      1 <0>        -0.0637
     23 C18         8.8316   -1.2620    4.5640 C.ar      1 <0>        -0.1529
     24 C19         9.4839   -0.3708    3.7331 C.ar      1 <0>         0.0988
     25 N5          9.4026    0.9288    3.9414 N.ar      1 <0>        -0.4794
     26 C20         8.7024    1.4285    4.9408 C.ar      1 <0>         0.0990
     27 C21         8.0184    0.5989    5.8091 C.ar      1 <0>        -0.1529
     28 C22        -0.1773   -0.7323   -1.0715 C.3       1 <0>        -0.1351
     29 H1          1.7482    1.1988   -0.6294 H         1 <0>         0.0615
     30 H2          0.2143    1.9632   -1.1104 H         1 <0>         0.0602
     31 H3          0.8190    2.1508    0.5532 H         1 <0>         0.0571
     32 H4         -1.5207    1.6624    0.6988 H         1 <0>         0.0684
     33 H5         -2.1804    0.0929    0.1478 H         1 <0>         0.0687
     34 H6         -2.0866    0.1697    2.7230 H         1 <0>         0.4116
     35 H7          2.6177   -1.0092    0.4468 H         1 <0>         0.1223
     36 H8          3.4061   -2.0696    2.5233 H         1 <0>         0.1332
     37 H9         -0.3243   -1.1585    4.3988 H         1 <0>         0.1199
     38 H10         1.4023   -2.7451    5.3467 H         1 <0>         0.4099
     39 H11         1.9488   -3.9465    6.6991 H         1 <0>         0.1351
     40 H12         2.8542   -5.1349    8.6793 H         1 <0>         0.1402
     41 H13         5.1949   -4.7817    9.3404 H         1 <0>         0.1633
     42 H14         5.7198   -1.5404    5.2165 H         1 <0>         0.4273
     43 H15         7.2931   -1.2639    7.5456 H         1 <0>         0.0786
     44 H16         7.9042   -2.6545    6.6178 H         1 <0>         0.0816
     45 H17         8.9026   -2.3254    4.3887 H         1 <0>         0.1365
     46 H18        10.0672   -0.7431    2.9039 H         1 <0>         0.1584
     47 H19         8.6595    2.4986    5.0799 H         1 <0>         0.1581
     48 H20         7.4425    1.0143    6.6228 H         1 <0>         0.1358
     49 H21         0.8053   -1.0276   -1.4395 H         1 <0>         0.0614
     50 H22        -0.7302   -1.6186   -0.7605 H         1 <0>         0.0571
     51 H23        -0.7242   -0.2225   -1.8647 H         1 <0>         0.0600
@<TRIPOS>BOND
     1    1    2 1
     2    1   29 1
     3    1   30 1
     4    1   31 1
     5    2    6 1
     6    2    3 1
     7    2   28 1
     8    3    4 1
     9    3   32 1
    10    3   33 1
    11    4    5 1
    12    4   34 1
    13    5   10 ar
    14    5    6 ar
    15    6    7 ar
    16    7    8 ar
    17    7   35 1
    18    8    9 ar
    19    8   36 1
    20    9   10 ar
    21    9   11 1
    22   10   37 1
    23   11   12 am
    24   11   38 1
    25   12   13 2
    26   12   14 1
    27   14   19 ar
    28   14   15 ar
    29   15   16 ar
    30   15   39 1
    31   16   17 ar
    32   16   40 1
    33   17   18 ar
    34   17   41 1
    35   18   19 ar
    36   19   20 1
    37   20   21 1
    38   20   42 1
    39   21   22 1
    40   21   43 1
    41   21   44 1
    42   22   27 ar
    43   22   23 ar
    44   23   24 ar
    45   23   45 1
    46   24   25 ar
    47   24   46 1
    48   25   26 ar
    49   26   27 ar
    50   26   47 1
    51   27   48 1
    52   28   49 1
    53   28   50 1
    54   28   51 1
@<TRIPOS>MOLECULE
CHEMBL324335
   51    55     0     0     0
SMALL
USER_CHARGES

@<TRIPOS>ATOM
      1 C1         -0.0201    1.4474   -0.3008 C.ar      1 <0>        -0.0549
      2 C2          1.1729    2.1393   -0.2827 C.ar      1 <0>        -0.1485
      3 C3          2.3740    1.4517   -0.1760 C.ar      1 <0>         0.1460
      4 C4          2.3784    0.0663   -0.0871 C.ar      1 <0>        -0.2102
      5 C5          1.1885   -0.6309   -0.1042 C.ar      1 <0>        -0.0566
      6 C6         -0.0190    0.0567   -0.2113 C.ar      1 <0>        -0.0878
      7 C7         -1.3010   -0.6906   -0.2299 C.2       1 <0>        -0.1397
      8 C8         -2.2362   -0.5319    0.8165 C.2       1 <0>         0.1961
      9 N1         -3.3669   -1.1952    0.7947 N.2       1 <0>        -0.4525
     10 C9         -3.6577   -2.0291   -0.2101 C.2       1 <0>         0.2661
     11 C10        -4.7672   -2.8403   -0.4719 C.2       1 <0>        -0.1755
     12 C11        -4.5232   -3.5016   -1.6782 C.2       1 <0>         0.1076
     13 N2         -3.3500   -3.1319   -2.1359 N.2       1 <0>        -0.3068
     14 N3         -2.7788   -2.2137   -1.2477 N.pl3     1 <0>        -0.3099
     15 C12        -1.5934   -1.5363   -1.2624 C.2       1 <0>         0.1753
     16 C13        -5.9787   -2.9738    0.3751 C.2       1 <0>        -0.0377
     17 C14        -7.2498   -2.8570   -0.1784 C.2       1 <0>        -0.1456
     18 C15        -8.3300   -2.9853    0.6260 C.2       1 <0>        -0.1735
     19 S1         -7.5817   -3.2804    2.2192 S.3       1 <0>         0.0340
     20 C16        -5.8706   -3.2199    1.7146 C.2       1 <0>        -0.1509
     21 O1          3.5480    2.1360   -0.1589 O.3       1 <0>        -0.2951
     22 C17         4.7464    1.3657   -0.0470 C.3       1 <0>         0.0650
     23 C18         5.9562    2.3022   -0.0443 C.3       1 <0>         0.0537
     24 N4          5.9222    3.1426    1.1601 N.3       1 <0>        -0.5310
     25 C19         6.7642    4.3362    0.9936 C.3       1 <0>         0.0184
     26 C20         6.6528    5.2112    2.2449 C.3       1 <0>         0.0628
     27 O2          7.0240    4.4427    3.3925 O.3       1 <0>        -0.3849
     28 C21         6.2240    3.2730    3.5853 C.3       1 <0>         0.0636
     29 C22         6.3309    2.3784    2.3476 C.3       1 <0>         0.0138
     30 H1         -0.9546    1.9832   -0.3797 H         1 <0>         0.1332
     31 H2          1.1726    3.2171   -0.3521 H         1 <0>         0.1362
     32 H3          3.3145   -0.4660   -0.0049 H         1 <0>         0.1302
     33 H4          1.1925   -1.7087   -0.0354 H         1 <0>         0.1263
     34 H5         -2.0194    0.1369    1.6363 H         1 <0>         0.1823
     35 H6         -5.1911   -4.2030   -2.1561 H         1 <0>         0.2010
     36 H7         -0.8956   -1.6703   -2.0757 H         1 <0>         0.1804
     37 H8         -7.3723   -2.6664   -1.2343 H         1 <0>         0.1333
     38 H9         -9.3773   -2.9244    0.3696 H         1 <0>         0.1861
     39 H10        -4.9804   -3.3443    2.3133 H         1 <0>         0.1811
     40 H11         4.7263    0.7953    0.8816 H         1 <0>         0.0643
     41 H12         4.8186    0.6812   -0.8923 H         1 <0>         0.0688
     42 H13         6.8726    1.7120   -0.0497 H         1 <0>         0.0624
     43 H14         5.9271    2.9360   -0.9306 H         1 <0>         0.0891
     44 H15         7.8016    4.0330    0.8526 H         1 <0>         0.0439
     45 H16         6.4278    4.9005    0.1238 H         1 <0>         0.0889
     46 H17         7.3192    6.0686    2.1500 H         1 <0>         0.0996
     47 H18         5.6256    5.5584    2.3560 H         1 <0>         0.0617
     48 H19         6.5802    2.7286    4.4598 H         1 <0>         0.0990
     49 H20         5.1842    3.5638    3.7354 H         1 <0>         0.0612
     50 H21         5.6783    1.5134    2.4661 H         1 <0>         0.0849
     51 H22         7.3615    2.0439    2.2282 H         1 <0>         0.0448
@<TRIPOS>BOND
     1    1    6 ar
     2    1    2 ar
     3    1   30 1
     4    2    3 ar
     5    2   31 1
     6    3    4 ar
     7    3   21 1
     8    4    5 ar
     9    4   32 1
    10    5    6 ar
    11    5   33 1
    12    6    7 1
    13    7   15 2
    14    7    8 1
    15    8    9 2
    16    8   34 1
    17    9   10 1
    18   10   14 1
    19   10   11 2
    20   11   12 1
    21   11   16 1
    22   12   13 2
    23   12   35 1
    24   13   14 1
    25   14   15 1
    26   15   36 1
    27   16   20 2
    28   16   17 1
    29   17   18 2
    30   17   37 1
    31   18   19 1
    32   18   38 1
    33   19   20 1
    34   20   39 1
    35   21   22 1
    36   22   23 1
    37   22   40 1
    38   22   41 1
    39   23   24 1
    40   23   42 1
    41   23   43 1
    42   24   29 1
    43   24   25 1
    44   25   26 1
    45   25   44 1
    46   25   45 1
    47   26   27 1
    48   26   46 1
    49   26   47 1
    50   27   28 1
    51   28   29 1
    52   28   48 1
    53   28   49 1
    54   29   50 1
    55   29   51 1
@<TRIPOS>MOLECULE
CHEMBL324335__1
   52    56     0     0     0
SMALL
USER_CHARGES

@<TRIPOS>ATOM
      1 C1          0.0455    1.0497    0.0451 C.ar      1 <0>        -0.0554
      2 C2          1.1887    1.8202    0.0029 C.ar      1 <0>        -0.1365
      3 C3          2.4372    1.2138    0.0257 C.ar      1 <0>         0.1205
      4 C4          2.5392   -0.1691    0.0911 C.ar      1 <0>        -0.1992
      5 C5          1.3995   -0.9447    0.1341 C.ar      1 <0>        -0.0588
      6 C6          0.1447   -0.3388    0.1113 C.ar      1 <0>        -0.0555
      7 C7         -1.0835   -1.1706    0.1574 C.2       1 <0>        -0.1617
      8 C8         -1.9615   -1.0883    1.2607 C.2       1 <0>         0.1925
      9 N1         -3.0448   -1.8261    1.2959 N.2       1 <0>        -0.4453
     10 C9         -3.3403   -2.6651    0.2968 C.2       1 <0>         0.2612
     11 C10        -4.4073   -3.5458    0.0888 C.2       1 <0>        -0.1625
     12 C11        -4.1941   -4.1740   -1.1408 C.2       1 <0>         0.1113
     13 N2         -3.0782   -3.7203   -1.6620 N.2       1 <0>        -0.3017
     14 N3         -2.5161   -2.7770   -0.7947 N.pl3     1 <0>        -0.3133
     15 C12        -1.3816   -2.0211   -0.8694 C.2       1 <0>         0.1862
     16 C13        -5.5532   -3.7714    1.0049 C.2       1 <0>        -0.0425
     17 C14        -6.8607   -3.7336    0.5309 C.2       1 <0>        -0.1482
     18 C15        -7.8787   -3.9445    1.3965 C.2       1 <0>        -0.1696
     19 S1         -7.0165   -4.2084    2.9367 S.3       1 <0>         0.0426
     20 C16        -5.3472   -4.0263    2.3311 C.2       1 <0>        -0.1522
     21 O1          3.5619    1.9754   -0.0165 O.3       1 <0>        -0.3280
     22 C17         4.8135    1.2863    0.0102 C.3       1 <0>         0.0247
     23 C18         5.9562    2.3022   -0.0443 C.3       1 <0>        -0.0002
     24 N4          5.9222    3.1426    1.1601 N.4       1 <0>        -0.3870
     25 C19         6.9267    4.2086    1.0423 C.3       1 <0>        -0.0437
     26 C20         6.8891    5.0829    2.2981 C.3       1 <0>         0.0353
     27 O2          7.1226    4.2659    3.4487 O.3       1 <0>        -0.3556
     28 C21         6.1829    3.1974    3.5940 C.3       1 <0>         0.0370
     29 C22         6.2192    2.3195    2.3405 C.3       1 <0>        -0.0500
     30 H1         -0.9256    1.5222    0.0315 H         1 <0>         0.1409
     31 H2          1.1125    2.8962   -0.0484 H         1 <0>         0.1384
     32 H3          3.5119   -0.6381    0.1080 H         1 <0>         0.1318
     33 H4          1.4794   -2.0206    0.1846 H         1 <0>         0.1340
     34 H5         -1.7399   -0.4168    2.0770 H         1 <0>         0.1806
     35 H6         -4.8417   -4.9128   -1.5892 H         1 <0>         0.2045
     36 H7         -0.7274   -2.0975   -1.7254 H         1 <0>         0.1799
     37 H8         -7.0600   -3.5384   -0.5125 H         1 <0>         0.1341
     38 H9         -8.9415   -3.9511    1.2046 H         1 <0>         0.1879
     39 H10        -4.4158   -4.0979    2.8731 H         1 <0>         0.1807
     40 H11         4.8882    0.7043    0.9288 H         1 <0>         0.0877
     41 H12         4.8793    0.6190   -0.8491 H         1 <0>         0.1123
     42 H13         6.9090    1.7750   -0.0926 H         1 <0>         0.1513
     43 H14         5.8428    2.9295   -0.9284 H         1 <0>         0.1451
     44 H15         7.9169    3.7651    0.9374 H         1 <0>         0.1404
     45 H16         6.7072    4.8199    0.1669 H         1 <0>         0.1443
     46 H17         7.6624    5.8482    2.2321 H         1 <0>         0.1435
     47 H18         5.9117    5.5583    2.3815 H         1 <0>         0.0821
     48 H19         6.4452    2.5980    4.4658 H         1 <0>         0.1428
     49 H20         5.1814    3.6082    3.7217 H         1 <0>         0.0820
     50 H21         5.4745    1.5285    2.4289 H         1 <0>         0.1399
     51 H22         7.2097    1.8768    2.2352 H         1 <0>         0.1415
     52 H23         5.0057    3.5531    1.2581 H         1 <0>         0.4301
@<TRIPOS>BOND
     1    1    6 ar
     2    1    2 ar
     3    1   30 1
     4    2    3 ar
     5    2   31 1
     6    3    4 ar
     7    3   21 1
     8    4    5 ar
     9    4   32 1
    10    5    6 ar
    11    5   33 1
    12    6    7 1
    13    7   15 2
    14    7    8 1
    15    8    9 2
    16    8   34 1
    17    9   10 1
    18   10   14 1
    19   10   11 2
    20   11   12 1
    21   11   16 1
    22   12   13 2
    23   12   35 1
    24   13   14 1
    25   14   15 1
    26   15   36 1
    27   16   20 2
    28   16   17 1
    29   17   18 2
    30   17   37 1
    31   18   19 1
    32   18   38 1
    33   19   20 1
    34   20   39 1
    35   21   22 1
    36   22   23 1
    37   22   40 1
    38   22   41 1
    39   23   24 1
    40   23   42 1
    41   23   43 1
    42   24   29 1
    43   24   25 1
    44   24   52 1
    45   25   26 1
    46   25   44 1
    47   25   45 1
    48   26   27 1
    49   26   46 1
    50   26   47 1
    51   27   28 1
    52   28   29 1
    53   28   48 1
    54   28   49 1
    55   29   50 1
    56   29   51 1
@<TRIPOS>MOLECULE
CHEMBL271984
   47    50     0     0     0
SMALL
USER_CHARGES

@<TRIPOS>ATOM
      1 C1         -0.0620    1.2690    0.0299 C.3       1 <0>         0.0149
      2 O1         -0.0642   -0.1594   -0.0111 O.3       1 <0>        -0.2865
      3 C2         -1.2768   -0.7745   -0.0307 C.ar      1 <0>         0.1344
      4 C3         -2.4160   -0.0229   -0.0167 C.ar      1 <0>        -0.1360
      5 C4         -3.6670   -0.6577   -0.0374 C.ar      1 <0>        -0.0903
      6 C5         -4.8675    0.0875   -0.0243 C.ar      1 <0>         0.2832
      7 C6         -6.0633   -0.6084   -0.0466 C.ar      1 <0>        -0.2640
      8 C7         -6.0515   -1.9971   -0.0807 C.ar      1 <0>         0.2260
      9 N1         -4.9307   -2.6796   -0.0922 N.ar      1 <0>        -0.4818
     10 C8         -3.7385   -2.0717   -0.0725 C.ar      1 <0>         0.1817
     11 C9         -2.5483   -2.8176   -0.0858 C.ar      1 <0>        -0.2357
     12 C10        -1.3443   -2.1745   -0.0710 C.ar      1 <0>         0.2161
     13 O2         -0.1960   -2.9009   -0.0900 O.3       1 <0>        -0.2777
     14 C11        -0.3285   -4.3231   -0.1310 C.3       1 <0>         0.0117
     15 O3         -4.8483    1.4429    0.0096 O.3       1 <0>        -0.2126
     16 C12        -6.0343    2.1000   -0.0786 C.ar      1 <0>         0.0434
     17 C13        -6.8810    2.1482    1.0328 C.ar      1 <0>        -0.1370
     18 C14        -8.0752    2.7993    0.9736 C.ar      1 <0>        -0.0830
     19 C15        -8.4650    3.4317   -0.2153 C.ar      1 <0>        -0.0035
     20 C16        -7.6102    3.3860   -1.3437 C.ar      1 <0>        -0.0536
     21 C17        -6.3819    2.7103   -1.2505 C.ar      1 <0>        -0.0791
     22 C18        -8.0011    4.0212   -2.5355 C.ar      1 <0>        -0.0683
     23 C19        -9.1946    4.6756   -2.6021 C.ar      1 <0>        -0.1164
     24 C20       -10.0460    4.7317   -1.5060 C.ar      1 <0>        -0.0535
     25 C21        -9.7012    4.1185   -0.3105 C.ar      1 <0>        -0.1294
     26 C22       -10.6104    4.1812    0.8490 C.2       1 <0>         0.5672
     27 O4        -10.2550    3.7399    1.9249 O.2       1 <0>        -0.5340
     28 N2        -11.8352    4.7276    0.7161 N.am      1 <0>        -0.8430
     29 H1          0.9662    1.6305    0.0419 H         1 <0>         0.1186
     30 H2         -0.5738    1.6585   -0.8501 H         1 <0>         0.0667
     31 H3         -0.5767    1.6075    0.9291 H         1 <0>         0.0673
     32 H4         -2.3548    1.0550    0.0106 H         1 <0>         0.1725
     33 H5         -7.0018   -0.0741   -0.0372 H         1 <0>         0.1853
     34 H6         -6.9908   -2.5299   -0.0979 H         1 <0>         0.2123
     35 H7         -2.5857   -3.8967   -0.1123 H         1 <0>         0.1712
     36 H8         -0.8753   -4.6626    0.7487 H         1 <0>         0.0693
     37 H9         -0.8725   -4.6115   -1.0305 H         1 <0>         0.0692
     38 H10         0.6610   -4.7801   -0.1426 H         1 <0>         0.1215
     39 H11        -6.5841    1.6621    1.9504 H         1 <0>         0.1381
     40 H12        -8.7202    2.8281    1.8394 H         1 <0>         0.1841
     41 H13        -5.7182    2.6702   -2.1015 H         1 <0>         0.1460
     42 H14        -7.3541    3.9907   -3.3997 H         1 <0>         0.1408
     43 H15        -9.4835    5.1596   -3.5234 H         1 <0>         0.1422
     44 H16       -10.9861    5.2573   -1.5856 H         1 <0>         0.1378
     45 H17       -12.1187    5.0796   -0.1422 H         1 <0>         0.4037
     46 H18       -12.4333    4.7689    1.4787 H         1 <0>         0.4126
     47 H19        -4.9671   -3.6486   -0.1159 H         1 <0>         0.4474
@<TRIPOS>BOND
     1    1    2 1
     2    1   29 1
     3    1   30 1
     4    1   31 1
     5    2    3 1
     6    3   12 ar
     7    3    4 ar
     8    4    5 ar
     9    4   32 1
    10    5   10 ar
    11    5    6 ar
    12    6    7 ar
    13    6   15 1
    14    7    8 ar
    15    7   33 1
    16    8    9 ar
    17    8   34 1
    18    9   10 ar
    19    9   47 1
    20   10   11 ar
    21   11   12 ar
    22   11   35 1
    23   12   13 1
    24   13   14 1
    25   14   36 1
    26   14   37 1
    27   14   38 1
    28   15   16 1
    29   16   21 ar
    30   16   17 ar
    31   17   18 ar
    32   17   39 1
    33   18   19 ar
    34   18   40 1
    35   19   25 ar
    36   19   20 ar
    37   20   21 ar
    38   20   22 ar
    39   21   41 1
    40   22   23 ar
    41   22   42 1
    42   23   24 ar
    43   23   43 1
    44   24   25 ar
    45   24   44 1
    46   25   26 1
    47   26   27 2
    48   26   28 am
    49   28   45 1
    50   28   46 1
@<TRIPOS>MOLECULE
CHEMBL200723
   59    62     0     0     0
SMALL
USER_CHARGES

@<TRIPOS>ATOM
      1 C1          0.1307    1.4982    0.0777 C.3       1 <0>        -0.0473
      2 N1          0.1307    0.0293    0.0622 N.4       1 <0>        -0.3862
      3 C2         -1.2537   -0.4586    0.0684 C.3       1 <0>        -0.0036
      4 C3         -1.2608   -1.9856   -0.0294 C.3       1 <0>        -0.1428
      5 C4         -0.5059   -2.5718    1.1672 C.3       1 <0>        -0.0976
      6 C5          0.9139   -1.9985    1.1932 C.3       1 <0>        -0.1438
      7 C6          0.8404   -0.4710    1.2457 C.3       1 <0>        -0.0063
      8 C7         -0.4405   -4.0946    1.0346 C.3       1 <0>         0.0543
      9 O1          0.1605   -4.6494    2.2065 O.3       1 <0>        -0.2956
     10 C8          0.2948   -6.0004    2.2500 C.ar      1 <0>         0.1606
     11 C9         -0.1344   -6.7549    1.1951 C.ar      1 <0>        -0.1746
     12 C10         0.0039   -8.1495    1.2393 C.ar      1 <0>         0.1902
     13 C11         0.5891   -8.7560    2.3824 C.ar      1 <0>        -0.1536
     14 C12         1.0198   -7.9606    3.4479 C.ar      1 <0>        -0.1514
     15 C13         0.8780   -6.6025    3.3760 C.ar      1 <0>         0.1206
     16 O2          1.3012   -5.8274    4.4088 O.3       1 <0>        -0.2999
     17 C14         1.8863   -6.4986    5.5264 C.3       1 <0>         0.0205
     18 C15         0.7162  -10.1691    2.3979 C.ar      1 <0>         0.3724
     19 N2          0.2798  -10.8491    1.3400 N.ar      1 <0>        -0.5125
     20 C16        -0.2575  -10.2364    0.3006 C.ar      1 <0>         0.3299
     21 N3         -0.4001   -8.9327    0.2320 N.ar      1 <0>        -0.5150
     22 N4          1.2686  -10.8107    3.4634 N.2       1 <0>        -0.3935
     23 C17         0.5302  -11.1223    4.4906 C.2       1 <0>         0.1741
     24 C18         1.1209  -11.7174    5.7588 C.3       1 <0>        -0.1091
     25 C19         0.5754  -10.9124    6.9192 C.2       1 <0>         0.4024
     26 O3          1.2910  -10.6193    7.8477 O.2       1 <0>        -0.3809
     27 C20        -0.8379  -10.4885    6.9058 C.2       1 <0>         0.1109
     28 C21        -1.5596  -10.4775    5.7581 C.2       1 <0>        -0.2965
     29 C22        -0.9442  -10.9120    4.4980 C.2       1 <0>         0.3840
     30 O4         -1.6152  -11.0956    3.4998 O.2       1 <0>        -0.4003
     31 O5         -1.4256  -10.1035    8.0622 O.3       1 <0>        -0.2802
     32 C23        -2.7955   -9.7029    7.9918 C.3       1 <0>         0.0137
     33 H1          1.1583    1.8617    0.0664 H         1 <0>         0.1243
     34 H2         -0.3961    1.8708   -0.8008 H         1 <0>         0.1242
     35 H3         -0.3700    1.8521    0.9789 H         1 <0>         0.1219
     36 H4         -1.7424   -0.1519    0.9932 H         1 <0>         0.1305
     37 H5         -1.7904   -0.0380   -0.7819 H         1 <0>         0.1344
     38 H6         -2.2895   -2.3460   -0.0228 H         1 <0>         0.1174
     39 H7         -0.7725   -2.2934   -0.9540 H         1 <0>         0.0935
     40 H8         -1.0229   -2.3070    2.0895 H         1 <0>         0.1031
     41 H9          1.4396   -2.3681    2.0736 H         1 <0>         0.1212
     42 H10         1.4473   -2.3066    0.2939 H         1 <0>         0.0895
     43 H11         1.8496   -0.0596    1.2645 H         1 <0>         0.1327
     44 H12         0.3070   -0.1640    2.1454 H         1 <0>         0.1299
     45 H13        -1.4485   -4.4931    0.9199 H         1 <0>         0.0786
     46 H14         0.1559   -4.3580    0.1611 H         1 <0>         0.0744
     47 H15        -0.5779   -6.2800    0.3324 H         1 <0>         0.1558
     48 H16         1.4657   -8.4153    4.3202 H         1 <0>         0.1452
     49 H17         2.1799   -5.7654    6.2776 H         1 <0>         0.1115
     50 H18         1.1605   -7.1888    5.9565 H         1 <0>         0.0565
     51 H19         2.7649   -7.0537    5.1976 H         1 <0>         0.0626
     52 H20        -0.5952  -10.8356   -0.5320 H         1 <0>         0.2057
     53 H21         0.8199  -12.7605    5.8556 H         1 <0>         0.1567
     54 H22         2.2081  -11.6435    5.7332 H         1 <0>         0.1466
     55 H23        -2.5872  -10.1453    5.7704 H         1 <0>         0.1621
     56 H24        -2.8911   -8.8521    7.3173 H         1 <0>         0.0662
     57 H25        -3.3976  -10.5315    7.6190 H         1 <0>         0.0713
     58 H26        -3.1428   -9.4197    8.9854 H         1 <0>         0.1163
     59 H27         0.5965   -0.2973   -0.7711 H         1 <0>         0.4248
@<TRIPOS>BOND
     1    1    2 1
     2    1   33 1
     3    1   34 1
     4    1   35 1
     5    2    7 1
     6    2    3 1
     7    2   59 1
     8    3    4 1
     9    3   36 1
    10    3   37 1
    11    4    5 1
    12    4   38 1
    13    4   39 1
    14    5    6 1
    15    5    8 1
    16    5   40 1
    17    6    7 1
    18    6   41 1
    19    6   42 1
    20    7   43 1
    21    7   44 1
    22    8    9 1
    23    8   45 1
    24    8   46 1
    25    9   10 1
    26   10   15 ar
    27   10   11 ar
    28   11   12 ar
    29   11   47 1
    30   12   21 ar
    31   12   13 ar
    32   13   14 ar
    33   13   18 ar
    34   14   15 ar
    35   14   48 1
    36   15   16 1
    37   16   17 1
    38   17   49 1
    39   17   50 1
    40   17   51 1
    41   18   19 ar
    42   18   22 1
    43   19   20 ar
    44   20   21 ar
    45   20   52 1
    46   22   23 2
    47   23   29 1
    48   23   24 1
    49   24   25 1
    50   24   54 1
    51   24   53 1
    52   25   26 2
    53   25   27 1
    54   27   28 2
    55   27   31 1
    56   28   29 1
    57   28   55 1
    58   29   30 2
    59   31   32 1
    60   32   56 1
    61   32   57 1
    62   32   58 1
@<TRIPOS>MOLECULE
CHEMBL387604
   52    55     0     0     0
SMALL
USER_CHARGES

@<TRIPOS>ATOM
      1 C1          9.3835   -3.1969   -2.1665 C.3       1 <0>         0.0488
      2 O1          9.5012   -3.3015   -0.7462 O.3       1 <0>        -0.3442
      3 C2          8.4409   -3.7953   -0.0797 C.2       1 <0>         0.6630
      4 O2          7.4429   -4.1284   -0.6872 O.2       1 <0>        -0.5530
      5 N1          8.4865   -3.9202    1.2615 N.am      1 <0>        -0.6035
      6 C3          7.3962   -4.4280    1.9468 C.2       1 <0>         0.5434
      7 N2          7.3311   -4.5862    3.2443 N.2       1 <0>        -0.5010
      8 C4          6.1219   -5.1055    3.5775 C.ar      1 <0>         0.0653
      9 C5          5.5277   -5.4678    4.7898 C.ar      1 <0>        -0.1104
     10 C6          4.2401   -5.9819    4.7590 C.ar      1 <0>         0.0711
     11 C7          3.5885   -6.1191    3.5385 C.ar      1 <0>         0.1276
     12 N3          4.1708   -5.7701    2.4096 N.ar      1 <0>        -0.4383
     13 C8          5.3970   -5.2750    2.3847 C.ar      1 <0>         0.2165
     14 N4          6.2265   -4.8329    1.3701 N.pl3     1 <0>        -0.5736
     15 O3          3.6204   -6.3489    5.9123 O.3       1 <0>        -0.2429
     16 C9          4.3352   -6.2906    7.0673 C.ar      1 <0>         0.0652
     17 C10         4.5869   -5.0645    7.6659 C.ar      1 <0>        -0.1103
     18 C11         5.3124   -5.0048    8.8393 C.ar      1 <0>        -0.1028
     19 C12         5.7900   -6.1720    9.4201 C.ar      1 <0>         0.1619
     20 C13         5.5377   -7.3987    8.8207 C.ar      1 <0>        -0.1272
     21 C14         4.8076   -7.4577    7.6501 C.ar      1 <0>        -0.0956
     22 N5          6.5266   -6.1119   10.6106 N.am      1 <0>        -0.6764
     23 C15         6.2240   -5.1884   11.5445 C.2       1 <0>         0.7093
     24 O4          5.3674   -4.3550   11.3202 O.2       1 <0>        -0.5481
     25 N6          6.8708   -5.1887   12.7269 N.am      1 <0>        -0.6735
     26 C16         6.4994   -4.2827   13.7285 C.ar      1 <0>         0.1335
     27 C17         5.8870   -3.0840   13.3899 C.ar      1 <0>        -0.0606
     28 C18         5.5219   -2.1923   14.3798 C.ar      1 <0>        -0.1724
     29 C19         5.7655   -2.4918   15.7076 C.ar      1 <0>        -0.0590
     30 C20         6.3753   -3.6846   16.0500 C.ar      1 <0>        -0.1305
     31 C21         6.7383   -4.5845   15.0646 C.ar      1 <0>         0.1013
     32 F1          7.3287   -5.7527   15.3993 F         1 <0>        -0.1276
     33 C22         4.8574   -0.8906   14.0120 C.3       1 <0>         0.5126
     34 F2          3.4698   -1.0670   13.9839 F         1 <0>        -0.1720
     35 F3          5.1844    0.0843   14.9605 F         1 <0>        -0.1746
     36 F4          5.3010   -0.4809   12.7500 F         1 <0>        -0.1728
     37 H1          8.5497   -2.5400   -2.4146 H         1 <0>         0.0693
     38 H2         10.3051   -2.7855   -2.5782 H         1 <0>         0.1153
     39 H3          9.2058   -4.1854   -2.5901 H         1 <0>         0.0692
     40 H4          9.2833   -3.6543    1.7465 H         1 <0>         0.4457
     41 H5          6.0567   -5.3510    5.7241 H         1 <0>         0.1504
     42 H6          2.5859   -6.5199    3.5155 H         1 <0>         0.1805
     43 H7          4.2157   -4.1566    7.2138 H         1 <0>         0.1376
     44 H8          5.5086   -4.0503    9.3050 H         1 <0>         0.1499
     45 H9          5.9090   -8.3069    9.2721 H         1 <0>         0.1368
     46 H10         4.6078   -8.4122    7.1860 H         1 <0>         0.1403
     47 H11         7.2544   -6.7349   10.7626 H         1 <0>         0.4128
     48 H12         7.5934   -5.8163   12.8843 H         1 <0>         0.4166
     49 H13         5.6964   -2.8485   12.3533 H         1 <0>         0.1793
     50 H14         5.4790   -1.7923   16.4790 H         1 <0>         0.1498
     51 H15         6.5645   -3.9154   17.0880 H         1 <0>         0.1552
     52 H16         6.0169   -4.8158    0.4232 H         1 <0>         0.4422
@<TRIPOS>BOND
     1    1    2 1
     2    1   37 1
     3    1   38 1
     4    1   39 1
     5    2    3 1
     6    3    4 2
     7    3    5 am
     8    5    6 1
     9    5   40 1
    10    6   14 1
    11    6    7 2
    12    7    8 1
    13    8   13 ar
    14    8    9 ar
    15    9   10 ar
    16    9   41 1
    17   10   11 ar
    18   10   15 1
    19   11   12 ar
    20   11   42 1
    21   12   13 ar
    22   13   14 1
    23   14   52 1
    24   15   16 1
    25   16   21 ar
    26   16   17 ar
    27   17   18 ar
    28   17   43 1
    29   18   19 ar
    30   18   44 1
    31   19   20 ar
    32   19   22 1
    33   20   21 ar
    34   20   45 1
    35   21   46 1
    36   22   23 am
    37   22   47 1
    38   23   24 2
    39   23   25 am
    40   25   26 1
    41   25   48 1
    42   26   31 ar
    43   26   27 ar
    44   27   28 ar
    45   27   49 1
    46   28   29 ar
    47   28   33 1
    48   29   30 ar
    49   29   50 1
    50   30   31 ar
    51   30   51 1
    52   31   32 1
    53   33   34 1
    54   33   35 1
    55   33   36 1
@<TRIPOS>MOLECULE
CHEMBL387604__1
   51    54     0     0     0
SMALL
USER_CHARGES

@<TRIPOS>ATOM
      1 C1         -6.5113   -3.5300   -6.7397 C.3       1 <0>         0.0576
      2 O1         -5.3751   -3.5175   -7.6062 O.3       1 <0>        -0.3736
      3 C2         -4.2129   -3.9669   -7.0966 C.2       1 <0>         0.6372
      4 O2         -4.1646   -4.3589   -5.9476 O.2       1 <0>        -0.5121
      5 N1         -3.1029   -3.9820   -7.8609 N.am      1 <0>        -0.5961
      6 C3         -1.9085   -4.4438   -7.3372 C.2       1 <0>         0.4349
      7 N2         -0.7250   -4.4995   -8.0147 N.2       1 <0>        -0.6022
      8 C4          0.2187   -5.0173   -7.1457 C.ar      1 <0>         0.0154
      9 C5          1.5714   -5.3066   -7.2484 C.ar      1 <0>        -0.1321
     10 C6          2.2162   -5.8346   -6.1362 C.ar      1 <0>         0.0255
     11 C7          1.4929   -6.0533   -4.9698 C.ar      1 <0>         0.0689
     12 N3          0.2097   -5.7705   -4.8974 N.ar      1 <0>        -0.4313
     13 C8         -0.4523   -5.2635   -5.9348 C.ar      1 <0>         0.1852
     14 N4         -1.7443   -4.8871   -6.1162 N.2       1 <0>        -0.5375
     15 O3          3.5414   -6.1345   -6.1889 O.3       1 <0>        -0.2618
     16 C9          4.1799   -5.9977   -7.3813 C.ar      1 <0>         0.0970
     17 C10         4.5108   -4.7344   -7.8498 C.ar      1 <0>        -0.1143
     18 C11         5.1589   -4.5948   -9.0611 C.ar      1 <0>        -0.1007
     19 C12         5.4798   -5.7190   -9.8100 C.ar      1 <0>         0.1408
     20 C13         5.1488   -6.9831   -9.3405 C.ar      1 <0>        -0.1264
     21 C14         4.5054   -7.1218   -8.1266 C.ar      1 <0>        -0.1075
     22 N5          6.1371   -5.5780  -11.0395 N.am      1 <0>        -0.6721
     23 C15         7.0499   -4.6007  -11.2074 C.2       1 <0>         0.7073
     24 O4          7.2434   -3.7907  -10.3214 O.2       1 <0>        -0.5484
     25 N6          7.7482   -4.5211  -12.3574 N.am      1 <0>        -0.6763
     26 C16         8.7548   -3.5577  -12.5004 C.ar      1 <0>         0.1397
     27 C17         8.7092   -2.3881  -11.7543 C.ar      1 <0>        -0.0611
     28 C18         9.7033   -1.4395  -11.8973 C.ar      1 <0>        -0.1719
     29 C19        10.7439   -1.6532  -12.7826 C.ar      1 <0>        -0.0632
     30 C20        10.7938   -2.8167  -13.5280 C.ar      1 <0>        -0.1316
     31 C21         9.8050   -3.7732  -13.3857 C.ar      1 <0>         0.0975
     32 F1          9.8567   -4.9127  -14.1096 F         1 <0>        -0.1289
     33 C22         9.6533   -0.1696  -11.0876 C.3       1 <0>         0.5124
     34 F2         10.3323   -0.3599   -9.8793 F         1 <0>        -0.1723
     35 F3         10.2611    0.8657  -11.8059 F         1 <0>        -0.1765
     36 F4          8.3203    0.1645  -10.8258 F         1 <0>        -0.1711
     37 H1         -6.7094   -4.5515   -6.4149 H         1 <0>         0.0586
     38 H2         -6.3117   -2.9044   -5.8697 H         1 <0>         0.0587
     39 H3         -7.3796   -3.1436   -7.2734 H         1 <0>         0.0984
     40 H4         -3.1415   -3.6690   -8.7782 H         1 <0>         0.4172
     41 H5          2.1089   -5.1267   -8.1678 H         1 <0>         0.1168
     42 H6          1.9939   -6.4639   -4.1056 H         1 <0>         0.1480
     43 H7          4.2611   -3.8599   -7.2672 H         1 <0>         0.1350
     44 H8          5.4158   -3.6113   -9.4260 H         1 <0>         0.1440
     45 H9          5.3982   -7.8579   -9.9227 H         1 <0>         0.1303
     46 H10         4.2518   -8.1053   -7.7592 H         1 <0>         0.1363
     47 H11         5.9351   -6.1837  -11.7697 H         1 <0>         0.4098
     48 H12         7.5536   -5.1311  -13.0861 H         1 <0>         0.4153
     49 H13         7.8969   -2.2196  -11.0628 H         1 <0>         0.1808
     50 H14        11.5192   -0.9095  -12.8922 H         1 <0>         0.1478
     51 H15        11.6076   -2.9805  -14.2188 H         1 <0>         0.1530
@<TRIPOS>BOND
     1    1    2 1
     2    1   37 1
     3    1   38 1
     4    1   39 1
     5    2    3 1
     6    3    4 2
     7    3    5 am
     8    5    6 1
     9    5   40 1
    10    6   14 2
    11    6    7 1
    12    7    8 1
    13    8   13 ar
    14    8    9 ar
    15    9   10 ar
    16    9   41 1
    17   10   11 ar
    18   10   15 1
    19   11   12 ar
    20   11   42 1
    21   12   13 ar
    22   13   14 1
    23   15   16 1
    24   16   21 ar
    25   16   17 ar
    26   17   18 ar
    27   17   43 1
    28   18   19 ar
    29   18   44 1
    30   19   20 ar
    31   19   22 1
    32   20   21 ar
    33   20   45 1
    34   21   46 1
    35   22   23 am
    36   22   47 1
    37   23   24 2
    38   23   25 am
    39   25   26 1
    40   25   48 1
    41   26   31 ar
    42   26   27 ar
    43   27   28 ar
    44   27   49 1
    45   28   29 ar
    46   28   33 1
    47   29   30 ar
    48   29   50 1
    49   30   31 ar
    50   30   51 1
    51   31   32 1
    52   33   34 1
    53   33   35 1
    54   33   36 1
@<TRIPOS>MOLECULE
CHEMBL250213
   63    67     0     0     0
SMALL
USER_CHARGES

@<TRIPOS>ATOM
      1 C1         -0.0795    1.3146   -0.0505 C.3       1 <0>        -0.1086
      2 C2         -0.9732    0.1130    0.1187 C.ar      1 <0>        -0.0739
      3 C3         -1.6456   -0.3908   -0.9497 C.ar      1 <0>        -0.0399
      4 C4         -2.4830   -1.5097   -0.8118 C.ar      1 <0>        -0.0357
      5 C5         -2.6412   -2.1236    0.4173 C.ar      1 <0>        -0.0370
      6 C6         -1.9566   -1.6195    1.5322 C.ar      1 <0>        -0.0229
      7 C7         -1.1080   -0.4909    1.3791 C.ar      1 <0>         0.1934
      8 N1         -0.4582   -0.0265    2.4534 N.ar      1 <0>        -0.5000
      9 C8         -0.6226   -0.6338    3.6148 C.ar      1 <0>         0.4912
     10 N2         -1.4198   -1.6974    3.7398 N.ar      1 <0>        -0.2860
     11 N3         -2.0781   -2.1790    2.7417 N.ar      1 <0>        -0.1031
     12 N4          0.0477   -0.1566    4.7282 N.pl3     1 <0>        -0.6325
     13 C9         -0.0221   -0.8535    5.9380 C.ar      1 <0>         0.1697
     14 C10         0.0084   -2.2423    5.9441 C.ar      1 <0>        -0.1093
     15 C11        -0.0607   -2.9277    7.1410 C.ar      1 <0>        -0.0895
     16 C12        -0.1602   -2.2331    8.3326 C.ar      1 <0>        -0.1148
     17 C13        -0.1909   -0.8505    8.3301 C.ar      1 <0>        -0.0908
     18 C14        -0.1163   -0.1588    7.1372 C.ar      1 <0>        -0.1384
     19 C15        -0.2360   -2.9844    9.6367 C.3       1 <0>        -0.0703
     20 C16         1.1770   -3.2071   10.1798 C.3       1 <0>        -0.1440
     21 C17         1.1001   -3.9700   11.5039 C.3       1 <0>        -0.0091
     22 N5          2.4567   -4.1838   12.0253 N.4       1 <0>        -0.3908
     23 C18         3.2010   -5.0855   11.1206 C.3       1 <0>        -0.0118
     24 C19         4.0829   -5.9472   12.0584 C.3       1 <0>        -0.1441
     25 C20         3.1400   -6.1535   13.2730 C.3       1 <0>        -0.1425
     26 C21         2.3830   -4.8114   13.3574 C.3       1 <0>        -0.0132
     27 C22        -3.2047   -2.0376   -1.9952 C.ar      1 <0>        -0.0300
     28 C23        -3.1535   -3.3970   -2.2958 C.ar      1 <0>        -0.1178
     29 C24        -3.8299   -3.8839   -3.4017 C.ar      1 <0>         0.1179
     30 C25        -4.5568   -3.0187   -4.2082 C.ar      1 <0>        -0.1245
     31 C26        -4.6088   -1.6698   -3.9115 C.ar      1 <0>        -0.0878
     32 C27        -3.9415   -1.1756   -2.8071 C.ar      1 <0>        -0.0333
     33 Cl1        -4.0152    0.5182   -2.4339 Cl        1 <0>        -0.0540
     34 O1         -3.7816   -5.2095   -3.6981 O.3       1 <0>        -0.4936
     35 H1          0.9282    0.9851   -0.3033 H         1 <0>         0.0775
     36 H2         -0.4668    1.9457   -0.8504 H         1 <0>         0.0741
     37 H3         -0.0537    1.8820    0.8798 H         1 <0>         0.0791
     38 H4         -1.5346    0.0756   -1.9174 H         1 <0>         0.1462
     39 H5         -3.2868   -2.9836    0.5176 H         1 <0>         0.1511
     40 H6          0.5657    0.6613    4.6689 H         1 <0>         0.4278
     41 H7          0.0858   -2.7854    5.0138 H         1 <0>         0.1295
     42 H8         -0.0374   -4.0074    7.1464 H         1 <0>         0.1258
     43 H9         -0.2686   -0.3111    9.2625 H         1 <0>         0.1268
     44 H10        -0.1355    0.9210    7.1363 H         1 <0>         0.1298
     45 H11        -0.8148   -2.4056   10.3565 H         1 <0>         0.0825
     46 H12        -0.7185   -3.9481    9.4734 H         1 <0>         0.0825
     47 H13         1.7558   -3.7860    9.4601 H         1 <0>         0.0877
     48 H14         1.6595   -2.2435   10.3432 H         1 <0>         0.0876
     49 H15         0.5212   -3.3911   12.2236 H         1 <0>         0.1303
     50 H16         0.6175   -4.9336   11.3405 H         1 <0>         0.1297
     51 H17         2.5105   -5.7177   10.5624 H         1 <0>         0.1323
     52 H18         3.8246   -4.5082   10.4380 H         1 <0>         0.1339
     53 H19         4.3334   -6.9001   11.5923 H         1 <0>         0.1165
     54 H20         4.9841   -5.4084   12.3509 H         1 <0>         0.0983
     55 H21         2.4480   -6.9753   13.0885 H         1 <0>         0.0985
     56 H22         3.7152   -6.3294   14.1820 H         1 <0>         0.1125
     57 H23         2.8546   -4.1656   14.0982 H         1 <0>         0.1315
     58 H24         1.3418   -4.9892   13.6265 H         1 <0>         0.1315
     59 H25        -2.5875   -4.0693   -1.6681 H         1 <0>         0.1425
     60 H26        -5.0832   -3.4009   -5.0704 H         1 <0>         0.1437
     61 H27        -5.1757   -1.0011   -4.5421 H         1 <0>         0.1449
     62 H28        -4.4838   -5.7307   -3.2853 H         1 <0>         0.3974
     63 H29         2.9386   -3.2999   12.0925 H         1 <0>         0.4256
@<TRIPOS>BOND
     1    1    2 1
     2    1   35 1
     3    1   36 1
     4    1   37 1
     5    2    7 ar
     6    2    3 ar
     7    3    4 ar
     8    3   38 1
     9    4    5 ar
    10    4   27 1
    11    5    6 ar
    12    5   39 1
    13    6   11 ar
    14    6    7 ar
    15    7    8 ar
    16    8    9 ar
    17    9   10 ar
    18    9   12 1
    19   10   11 ar
    20   12   13 1
    21   12   40 1
    22   13   18 ar
    23   13   14 ar
    24   14   15 ar
    25   14   41 1
    26   15   16 ar
    27   15   42 1
    28   16   17 ar
    29   16   19 1
    30   17   18 ar
    31   17   43 1
    32   18   44 1
    33   19   20 1
    34   19   45 1
    35   19   46 1
    36   20   21 1
    37   20   47 1
    38   20   48 1
    39   21   22 1
    40   21   49 1
    41   21   50 1
    42   22   26 1
    43   22   23 1
    44   22   63 1
    45   23   24 1
    46   23   51 1
    47   23   52 1
    48   24   25 1
    49   24   53 1
    50   24   54 1
    51   25   26 1
    52   25   55 1
    53   25   56 1
    54   26   57 1
    55   26   58 1
    56   27   32 ar
    57   27   28 ar
    58   28   29 ar
    59   28   59 1
    60   29   30 ar
    61   29   34 1
    62   30   31 ar
    63   30   60 1
    64   31   32 ar
    65   31   61 1
    66   32   33 1
    67   34   62 1
@<TRIPOS>MOLECULE
CHEMBL222076
   44    46     0     0     0
SMALL
USER_CHARGES

@<TRIPOS>ATOM
      1 C1          2.2218    0.3642    2.2974 C.3       1 <0>        -0.0960
      2 C2          1.5536   -0.7999    1.6122 C.2       1 <0>         0.0860
      3 C3          2.1946   -1.8523    1.0805 C.2       1 <0>        -0.1890
      4 C4          1.1717   -2.7401    0.5217 C.ar      1 <0>        -0.1341
      5 C5         -0.0641   -2.1185    0.7753 C.ar      1 <0>         0.1302
      6 N1          0.2027   -0.9433    1.4451 N.pl3     1 <0>        -0.5875
      7 H1         -0.4669   -0.3111    1.7500 H         1 <0>         0.4197
      8 C6         -1.2394   -2.7328    0.3558 C.ar      1 <0>        -0.1245
      9 C7         -1.1885   -3.9416   -0.3027 C.ar      1 <0>        -0.0656
     10 C8          0.0321   -4.5606   -0.5555 C.ar      1 <0>         0.0260
     11 C9          1.2123   -3.9665   -0.1469 C.ar      1 <0>         0.1566
     12 F1          2.3969   -4.5675   -0.3934 F         1 <0>        -0.1262
     13 O1          0.0644   -5.7548   -1.2062 O.3       1 <0>        -0.1983
     14 C10         0.1944   -6.8796   -0.4642 C.ar      1 <0>         0.4163
     15 C11         0.3347   -8.1326   -1.0844 C.ar      1 <0>        -0.2487
     16 C12         0.4663   -9.2658   -0.2600 C.ar      1 <0>         0.4946
     17 N2          0.4524   -9.1031    1.0599 N.ar      1 <0>        -0.5923
     18 C13         0.3182   -7.9066    1.5950 C.ar      1 <0>         0.3934
     19 N3          0.1970   -6.8172    0.8628 N.ar      1 <0>        -0.6010
     20 N4          0.6071  -10.5247   -0.8121 N.pl3     1 <0>        -0.8218
     21 C14         0.3432   -8.2563   -2.5515 C.2       1 <0>         0.1568
     22 N5          0.3256   -7.1933   -3.2912 N.2       1 <0>        -0.3100
     23 O2          0.3338   -7.3123   -4.7021 O.3       1 <0>        -0.2423
     24 C15         0.3123   -6.0606   -5.3912 C.3       1 <0>         0.0831
     25 C16         0.3234   -6.3092   -6.9008 C.3       1 <0>        -0.1201
     26 C17         0.3004   -4.9690   -7.6385 C.3       1 <0>         0.0815
     27 O3          0.3108   -5.2012   -9.0485 O.3       1 <0>        -0.5732
     28 H2          2.3240    0.1497    3.3612 H         1 <0>         0.0813
     29 H3          3.2085    0.5241    1.8625 H         1 <0>         0.0881
     30 H4          1.6163    1.2606    2.1640 H         1 <0>         0.0711
     31 H5          3.2624   -2.0139    1.0665 H         1 <0>         0.1512
     32 H6         -2.1924   -2.2619    0.5468 H         1 <0>         0.1357
     33 H7         -2.1046   -4.4137   -0.6256 H         1 <0>         0.1421
     34 H8          0.3114   -7.8146    2.6710 H         1 <0>         0.2053
     35 H9          0.5415  -10.6432   -1.7726 H         1 <0>         0.4141
     36 H10         0.7715  -11.2899   -0.2392 H         1 <0>         0.4158
     37 H11         0.3642   -9.2336   -3.0108 H         1 <0>         0.1205
     38 H12        -0.5897   -5.5120   -5.1199 H         1 <0>         0.0598
     39 H13         1.1899   -5.4773   -5.1125 H         1 <0>         0.0594
     40 H14         1.2254   -6.8578   -7.1720 H         1 <0>         0.0790
     41 H15        -0.5542   -6.8925   -7.1795 H         1 <0>         0.0790
     42 H16        -0.6016   -4.4204   -7.3673 H         1 <0>         0.0499
     43 H17         1.1780   -4.3857   -7.3598 H         1 <0>         0.0500
     44 H18         0.2973   -4.3936   -9.5802 H         1 <0>         0.3841
@<TRIPOS>BOND
     1    1    2 1
     2    1   28 1
     3    1   29 1
     4    1   30 1
     5    2    6 1
     6    2    3 2
     7    3    4 1
     8    3   31 1
     9    4   11 ar
    10    4    5 ar
    11    5    6 1
    12    5    8 ar
    13    6    7 1
    14    8    9 ar
    15    8   32 1
    16    9   10 ar
    17    9   33 1
    18   10   11 ar
    19   10   13 1
    20   11   12 1
    21   13   14 1
    22   14   19 ar
    23   14   15 ar
    24   15   16 ar
    25   15   21 1
    26   16   17 ar
    27   16   20 1
    28   17   18 ar
    29   18   19 ar
    30   18   34 1
    31   20   35 1
    32   20   36 1
    33   21   22 2
    34   21   37 1
    35   22   23 1
    36   23   24 1
    37   24   25 1
    38   24   38 1
    39   24   39 1
    40   25   26 1
    41   25   40 1
    42   25   41 1
    43   26   27 1
    44   26   42 1
    45   26   43 1
    46   27   44 1
@<TRIPOS>MOLECULE
CHEMBL498551
   51    55     0     0     0
SMALL
USER_CHARGES

@<TRIPOS>ATOM
      1 C1          1.6481   -2.3079   -2.5647 C.3       1 <0>        -0.0469
      2 N1          0.8769   -2.1996   -1.3191 N.4       1 <0>        -0.3840
      3 C2          1.6323   -2.8184   -0.2224 C.3       1 <0>        -0.0234
      4 C3          0.8825   -2.6054    1.0967 C.3       1 <0>         0.1116
      5 N2         -0.4889   -3.1145    0.9411 N.pl3     1 <0>        -0.6782
      6 C4         -1.2648   -2.6705   -0.2272 C.3       1 <0>         0.1071
      7 C5         -0.4137   -2.8804   -1.4839 C.3       1 <0>        -0.0217
      8 C6         -1.0361   -3.9898    1.8717 C.ar      1 <0>         0.2163
      9 C7         -1.0319   -5.3557    1.6336 C.ar      1 <0>        -0.1516
     10 C8         -1.5769   -6.2272    2.5605 C.ar      1 <0>        -0.0444
     11 C9         -2.1319   -5.7555    3.7333 C.ar      1 <0>        -0.1557
     12 C10        -2.1498   -4.3918    3.9979 C.ar      1 <0>         0.2221
     13 C11        -1.5929   -3.4987    3.0640 C.ar      1 <0>        -0.1494
     14 C12        -1.6112   -2.0626    3.3533 C.2       1 <0>         0.3529
     15 C13        -2.1810   -1.6399    4.5585 C.2       1 <0>        -0.2519
     16 C14        -2.7160   -2.5966    5.4517 C.2       1 <0>         0.5699
     17 O1         -3.2111   -2.2198    6.4997 O.2       1 <0>        -0.5450
     18 N3         -2.7031   -3.9096    5.1680 N.am      1 <0>        -0.6334
     19 H1         -3.0807   -4.5352    5.8059 H         1 <0>         0.4233
     20 C15        -2.2231   -0.2077    4.8953 C.2       1 <0>         0.3693
     21 N4         -2.6374    0.3088    6.0954 N.pl3     1 <0>        -0.5820
     22 H2         -2.9500   -0.1962    6.8623 H         1 <0>         0.4347
     23 C16        -2.5259    1.6852    6.0083 C.ar      1 <0>         0.0477
     24 C17        -2.7904    2.7275    6.8845 C.ar      1 <0>        -0.1083
     25 C18        -2.5693    4.0303    6.4887 C.ar      1 <0>        -0.1019
     26 C19        -2.0835    4.3067    5.2188 C.ar      1 <0>        -0.1226
     27 C20        -1.8156    3.2858    4.3355 C.ar      1 <0>        -0.0751
     28 C21        -2.0335    1.9591    4.7206 C.ar      1 <0>         0.0530
     29 N5         -1.8639    0.7688    4.0933 N.2       1 <0>        -0.5162
     30 N6         -1.0829   -1.1564    2.4654 N.pl3     1 <0>        -0.8262
     31 H3          1.0920   -1.8419   -3.3780 H         1 <0>         0.1252
     32 H4          2.6065   -1.8029   -2.4437 H         1 <0>         0.1251
     33 H5          1.8182   -3.3593   -2.7965 H         1 <0>         0.1220
     34 H6          1.7386   -3.8865   -0.4117 H         1 <0>         0.1335
     35 H7          2.6194   -2.3606   -0.1575 H         1 <0>         0.1400
     36 H8          1.3863   -3.1486    1.8962 H         1 <0>         0.1216
     37 H9          0.8536   -1.5419    1.3341 H         1 <0>         0.0852
     38 H10        -2.1806   -3.2567   -0.3029 H         1 <0>         0.1257
     39 H11        -1.5105   -1.6136   -0.1235 H         1 <0>         0.0816
     40 H12        -0.9342   -2.4684   -2.3484 H         1 <0>         0.1409
     41 H13        -0.2454   -3.9467   -1.6349 H         1 <0>         0.1348
     42 H14        -0.6019   -5.7412    0.7209 H         1 <0>         0.1320
     43 H15        -1.5681   -7.2890    2.3637 H         1 <0>         0.1425
     44 H16        -2.5536   -6.4483    4.4465 H         1 <0>         0.1450
     45 H17        -3.1691    2.5195    7.8743 H         1 <0>         0.1245
     46 H18        -2.7762    4.8408    7.1719 H         1 <0>         0.1325
     47 H19        -1.9146    5.3310    4.9210 H         1 <0>         0.1309
     48 H20        -1.4382    3.5085    3.3484 H         1 <0>         0.1259
     49 H21        -1.1376   -1.3236    1.5115 H         1 <0>         0.3969
     50 H22        -0.6553   -0.3496    2.7927 H         1 <0>         0.4202
     51 H23         0.7176   -1.2261   -1.1072 H         1 <0>         0.4243
@<TRIPOS>BOND
     1    1    2 1
     2    1   31 1
     3    1   32 1
     4    1   33 1
     5    2    7 1
     6    2    3 1
     7    2   51 1
     8    3    4 1
     9    3   34 1
    10    3   35 1
    11    4    5 1
    12    4   36 1
    13    4   37 1
    14    5    6 1
    15    5    8 1
    16    6    7 1
    17    6   38 1
    18    6   39 1
    19    7   40 1
    20    7   41 1
    21    8   13 ar
    22    8    9 ar
    23    9   10 ar
    24    9   42 1
    25   10   11 ar
    26   10   43 1
    27   11   12 ar
    28   11   44 1
    29   12   18 1
    30   12   13 ar
    31   13   14 1
    32   14   15 2
    33   14   30 1
    34   15   16 1
    35   15   20 1
    36   16   17 2
    37   16   18 am
    38   18   19 1
    39   20   29 2
    40   20   21 1
    41   21   22 1
    42   21   23 1
    43   23   28 ar
    44   23   24 ar
    45   24   25 ar
    46   24   45 1
    47   25   26 ar
    48   25   46 1
    49   26   27 ar
    50   26   47 1
    51   27   28 ar
    52   27   48 1
    53   28   29 1
    54   30   49 1
    55   30   50 1
@<TRIPOS>MOLECULE
CHEMBL498551__1
   50    54     0     0     0
SMALL
USER_CHARGES

@<TRIPOS>ATOM
      1 C1          1.8085   -2.1634   -2.6346 C.3       1 <0>         0.0245
      2 N1          0.9957   -2.1790   -1.4111 N.3       1 <0>        -0.5408
      3 C2          1.7304   -2.7963   -0.2988 C.3       1 <0>         0.0386
      4 C3          0.9256   -2.6311    0.9947 C.3       1 <0>         0.1430
      5 N2         -0.4284   -3.1612    0.7735 N.pl3     1 <0>        -0.6826
      6 C4         -1.1763   -2.6909   -0.4023 C.3       1 <0>         0.1383
      7 C5         -0.2888   -2.8538   -1.6409 C.3       1 <0>         0.0398
      8 C6         -0.9864   -4.0818    1.6526 C.ar      1 <0>         0.2467
      9 C7         -0.9443   -5.4375    1.3650 C.ar      1 <0>        -0.1615
     10 C8         -1.5000   -6.3540    2.2405 C.ar      1 <0>        -0.0427
     11 C9         -2.1036   -5.9381    3.4104 C.ar      1 <0>        -0.1728
     12 C10        -2.1602   -4.5858    3.7240 C.ar      1 <0>         0.2196
     13 C11        -1.5927   -3.6472    2.8427 C.ar      1 <0>        -0.1607
     14 C12        -1.6522   -2.2236    3.1834 C.2       1 <0>         0.3729
     15 C13        -2.2704   -1.8580    4.3834 C.2       1 <0>        -0.2844
     16 C14        -2.8132   -2.8583    5.2226 C.2       1 <0>         0.5752
     17 O1         -3.3507   -2.5312    6.2665 O.2       1 <0>        -0.5613
     18 N3         -2.7621   -4.1592    4.8917 N.am      1 <0>        -0.6362
     19 H1         -3.1466   -4.8159    5.4932 H         1 <0>         0.4182
     20 C15        -2.3551   -0.4406    4.7708 C.2       1 <0>         0.3840
     21 N4         -2.8199    0.0221    5.9743 N.pl3     1 <0>        -0.5856
     22 H2         -3.1463   -0.5175    6.7113 H         1 <0>         0.4328
     23 C16        -2.7360    1.4028    5.9415 C.ar      1 <0>         0.0429
     24 C17        -3.0521    2.4060    6.8457 C.ar      1 <0>        -0.1095
     25 C18        -2.8469    3.7270    6.5055 C.ar      1 <0>        -0.1090
     26 C19        -2.3258    4.0606    5.2636 C.ar      1 <0>        -0.1272
     27 C20        -2.0065    3.0791    4.3531 C.ar      1 <0>        -0.0739
     28 C21        -2.2078    1.7348    4.6818 C.ar      1 <0>         0.0575
     29 N5         -1.9914    0.5724    4.0175 N.2       1 <0>        -0.5184
     30 N6         -1.1151   -1.2741    2.3476 N.pl3     1 <0>        -0.8109
     31 H3          1.2711   -1.6335   -3.4210 H         1 <0>         0.0705
     32 H4          2.7537   -1.6581   -2.4364 H         1 <0>         0.0700
     33 H5          2.0037   -3.1870   -2.9542 H         1 <0>         0.0256
     34 H6          1.8763   -3.8569   -0.5035 H         1 <0>         0.0384
     35 H7          2.6996   -2.3100   -0.1888 H         1 <0>         0.0840
     36 H8          1.4087   -3.1849    1.7998 H         1 <0>         0.0771
     37 H9          0.8669   -1.5748    1.2571 H         1 <0>         0.0674
     38 H10        -2.0829   -3.2843   -0.5210 H         1 <0>         0.0821
     39 H11        -1.4371   -1.6403   -0.2743 H         1 <0>         0.0637
     40 H12        -0.7839   -2.4091   -2.5041 H         1 <0>         0.0849
     41 H13        -0.1147   -3.9136   -1.8268 H         1 <0>         0.0400
     42 H14        -0.4762   -5.7797    0.4538 H         1 <0>         0.1310
     43 H15        -1.4614   -7.4075    2.0055 H         1 <0>         0.1365
     44 H16        -2.5331   -6.6656    4.0833 H         1 <0>         0.1386
     45 H17        -3.4583    2.1535    7.8140 H         1 <0>         0.1208
     46 H18        -3.0938    4.5070    7.2105 H         1 <0>         0.1283
     47 H19        -2.1698    5.0986    5.0093 H         1 <0>         0.1278
     48 H20        -1.6020    3.3462    3.3881 H         1 <0>         0.1268
     49 H21        -1.1348   -1.4067    1.3869 H         1 <0>         0.4112
     50 H22        -0.7163   -0.4713    2.7183 H         1 <0>         0.4186
@<TRIPOS>BOND
     1    1    2 1
     2    1   31 1
     3    1   32 1
     4    1   33 1
     5    2    7 1
     6    2    3 1
     7    3    4 1
     8    3   34 1
     9    3   35 1
    10    4    5 1
    11    4   36 1
    12    4   37 1
    13    5    6 1
    14    5    8 1
    15    6    7 1
    16    6   38 1
    17    6   39 1
    18    7   40 1
    19    7   41 1
    20    8   13 ar
    21    8    9 ar
    22    9   10 ar
    23    9   42 1
    24   10   11 ar
    25   10   43 1
    26   11   12 ar
    27   11   44 1
    28   12   18 1
    29   12   13 ar
    30   13   14 1
    31   14   15 2
    32   14   30 1
    33   15   16 1
    34   15   20 1
    35   16   17 2
    36   16   18 am
    37   18   19 1
    38   20   29 2
    39   20   21 1
    40   21   22 1
    41   21   23 1
    42   23   28 ar
    43   23   24 ar
    44   24   25 ar
    45   24   45 1
    46   25   26 ar
    47   25   46 1
    48   26   27 ar
    49   26   47 1
    50   27   28 ar
    51   27   48 1
    52   28   29 1
    53   30   49 1
    54   30   50 1
@<TRIPOS>MOLECULE
CHEMBL400402
   61    65     0     0     0
SMALL
USER_CHARGES

@<TRIPOS>ATOM
      1 C1         -0.0789    1.3144   -0.0506 C.3       1 <0>        -0.1088
      2 C2         -0.9721    0.1124    0.1185 C.ar      1 <0>        -0.0738
      3 C3         -1.6440   -0.3918   -0.9500 C.ar      1 <0>        -0.0396
      4 C4         -2.4813   -1.5107   -0.8122 C.ar      1 <0>        -0.0350
      5 C5         -2.6395   -2.1246    0.4170 C.ar      1 <0>        -0.0373
      6 C6         -1.9550   -1.6205    1.5318 C.ar      1 <0>        -0.0224
      7 C7         -1.1069   -0.4915    1.3788 C.ar      1 <0>         0.1939
      8 N1         -0.4575   -0.0268    2.4532 N.ar      1 <0>        -0.4995
      9 C8         -0.6219   -0.6342    3.6147 C.ar      1 <0>         0.4909
     10 N2         -1.4186   -1.6982    3.7396 N.ar      1 <0>        -0.2891
     11 N3         -2.0765   -2.1800    2.7413 N.ar      1 <0>        -0.1025
     12 N4          0.0478   -0.1568    4.7280 N.pl3     1 <0>        -0.6313
     13 C9         -0.0219   -0.8549    5.9397 C.ar      1 <0>         0.1438
     14 C10         0.0087   -2.2432    5.9444 C.ar      1 <0>        -0.0721
     15 C11        -0.0597   -2.9309    7.1400 C.ar      1 <0>        -0.1162
     16 C12        -0.1595   -2.2353    8.3360 C.ar      1 <0>         0.0963
     17 C13        -0.1906   -0.8485    8.3321 C.ar      1 <0>        -0.1786
     18 C14        -0.1161   -0.1592    7.1379 C.ar      1 <0>        -0.1014
     19 O1         -0.2272   -2.9133    9.5128 O.3       1 <0>        -0.3245
     20 C15        -0.3287   -2.1334   10.7059 C.3       1 <0>         0.0278
     21 C16        -0.3934   -3.0634   11.9191 C.3       1 <0>         0.0010
     22 N5          0.8731   -3.7977   12.0413 N.4       1 <0>        -0.3911
     23 C17         1.0350   -4.7060   10.8861 C.3       1 <0>        -0.0016
     24 C18         1.7249   -5.9655   11.4669 C.3       1 <0>        -0.1459
     25 C19         1.0497   -6.0788   12.8591 C.3       1 <0>        -0.1421
     26 C20         0.8616   -4.6048   13.2752 C.3       1 <0>        -0.0134
     27 C21        -3.2029   -2.0387   -1.9956 C.ar      1 <0>        -0.0303
     28 C22        -3.1516   -3.3981   -2.2962 C.ar      1 <0>        -0.1177
     29 C23        -3.8278   -3.8851   -3.4021 C.ar      1 <0>         0.1180
     30 C24        -4.5545   -3.0199   -4.2089 C.ar      1 <0>        -0.1243
     31 C25        -4.6065   -1.6711   -3.9122 C.ar      1 <0>        -0.0878
     32 C26        -3.9397   -1.1768   -2.8076 C.ar      1 <0>        -0.0333
     33 Cl1        -4.0136    0.5170   -2.4344 Cl        1 <0>        -0.0541
     34 O2         -3.7798   -5.2108   -3.6982 O.3       1 <0>        -0.4935
     35 H1          0.9291    0.9853   -0.3031 H         1 <0>         0.0778
     36 H2         -0.4663    1.9452   -0.8506 H         1 <0>         0.0742
     37 H3         -0.0535    1.8819    0.8797 H         1 <0>         0.0792
     38 H4         -1.5327    0.0744   -1.9178 H         1 <0>         0.1463
     39 H5         -3.2851   -2.9846    0.5172 H         1 <0>         0.1513
     40 H6          0.5655    0.6614    4.6688 H         1 <0>         0.4283
     41 H7          0.0857   -2.7850    5.0133 H         1 <0>         0.1388
     42 H8         -0.0359   -4.0107    7.1438 H         1 <0>         0.1372
     43 H9         -0.2690   -0.3077    9.2637 H         1 <0>         0.1319
     44 H10        -0.1359    0.9207    7.1354 H         1 <0>         0.1349
     45 H11         0.5433   -1.4849   10.7913 H         1 <0>         0.0853
     46 H12        -1.2319   -1.5245   10.6663 H         1 <0>         0.1088
     47 H13        -0.5598   -2.4736   12.8205 H         1 <0>         0.1484
     48 H14        -1.2127   -3.7708   11.7914 H         1 <0>         0.1405
     49 H15         0.0624   -4.9650   10.4678 H         1 <0>         0.1383
     50 H16         1.6653   -4.2446   10.1260 H         1 <0>         0.1347
     51 H17         1.5121   -6.8435   10.8571 H         1 <0>         0.1161
     52 H18         2.7995   -5.8117   11.5654 H         1 <0>         0.0965
     53 H19         0.0866   -6.5830   12.7804 H         1 <0>         0.0986
     54 H20         1.7012   -6.5976   13.5623 H         1 <0>         0.1120
     55 H21         1.6786   -4.2965   13.9276 H         1 <0>         0.1321
     56 H22        -0.0921   -4.4833   13.7889 H         1 <0>         0.1316
     57 H23        -2.5855   -4.0704   -1.6684 H         1 <0>         0.1426
     58 H24        -5.0804   -3.4021   -5.0713 H         1 <0>         0.1437
     59 H25        -5.1732   -1.0023   -4.5431 H         1 <0>         0.1449
     60 H26        -4.4822   -5.7317   -3.2854 H         1 <0>         0.3974
     61 H27         1.6430   -3.1461   12.0690 H         1 <0>         0.4243
@<TRIPOS>BOND
     1    1    2 1
     2    1   35 1
     3    1   36 1
     4    1   37 1
     5    2    7 ar
     6    2    3 ar
     7    3    4 ar
     8    3   38 1
     9    4    5 ar
    10    4   27 1
    11    5    6 ar
    12    5   39 1
    13    6   11 ar
    14    6    7 ar
    15    7    8 ar
    16    8    9 ar
    17    9   10 ar
    18    9   12 1
    19   10   11 ar
    20   12   13 1
    21   12   40 1
    22   13   18 ar
    23   13   14 ar
    24   14   15 ar
    25   14   41 1
    26   15   16 ar
    27   15   42 1
    28   16   17 ar
    29   16   19 1
    30   17   18 ar
    31   17   43 1
    32   18   44 1
    33   19   20 1
    34   20   21 1
    35   20   45 1
    36   20   46 1
    37   21   22 1
    38   21   47 1
    39   21   48 1
    40   22   26 1
    41   22   23 1
    42   22   61 1
    43   23   24 1
    44   23   49 1
    45   23   50 1
    46   24   25 1
    47   24   51 1
    48   24   52 1
    49   25   26 1
    50   25   53 1
    51   25   54 1
    52   26   55 1
    53   26   56 1
    54   27   32 ar
    55   27   28 ar
    56   28   29 ar
    57   28   57 1
    58   29   30 ar
    59   29   34 1
    60   30   31 ar
    61   30   58 1
    62   31   32 ar
    63   31   59 1
    64   32   33 1
    65   34   60 1
@<TRIPOS>MOLECULE
CHEMBL271181
   49    52     0     0     0
SMALL
USER_CHARGES

@<TRIPOS>ATOM
      1 C1         -5.3608   -5.2192    4.5722 C.3       1 <0>         0.0847
      2 N1         -4.1220   -4.4686    4.3531 N.am      1 <0>        -0.7137
      3 C2         -2.9788   -5.1232    4.0683 C.2       1 <0>         0.5688
      4 O1         -2.9757   -6.3360    3.9932 O.2       1 <0>        -0.5264
      5 C3         -1.7257   -4.3639    3.8467 C.ar      1 <0>         0.1139
      6 C4         -0.5507   -5.0456    3.5475 C.ar      1 <0>        -0.1876
      7 C5          0.6183   -4.3172    3.3421 C.ar      1 <0>         0.1595
      8 C6          0.5602   -2.9299    3.4457 C.ar      1 <0>        -0.1760
      9 C7         -0.6461   -2.3239    3.7467 C.ar      1 <0>         0.1350
     10 N2         -1.7360   -3.0386    3.9302 N.ar      1 <0>        -0.4805
     11 O2          1.7858   -4.9443    3.0486 O.3       1 <0>        -0.2465
     12 C8          1.8005   -6.3030    3.0601 C.ar      1 <0>         0.0808
     13 C9          1.2254   -7.0086    1.9991 C.ar      1 <0>        -0.1271
     14 C10         1.2259   -8.3700    1.9835 C.ar      1 <0>        -0.0940
     15 C11         1.8098   -9.0779    3.0433 C.ar      1 <0>        -0.0067
     16 C12         2.3938   -8.3674    4.1204 C.ar      1 <0>        -0.0490
     17 C13         2.3823   -6.9625    4.1056 C.ar      1 <0>        -0.1013
     18 C14         2.9800   -9.0778    5.1826 C.ar      1 <0>        -0.0635
     19 C15         2.9852  -10.4406    5.1738 C.ar      1 <0>        -0.1259
     20 C16         2.4180  -11.1549    4.1262 C.ar      1 <0>        -0.0618
     21 C17         1.8278  -10.4952    3.0580 C.ar      1 <0>        -0.1276
     22 C18         1.2267  -11.2598    1.9498 C.2       1 <0>         0.5670
     23 O3          0.8067  -10.6786    0.9676 O.2       1 <0>        -0.5080
     24 N3          1.1428  -12.6028    2.0254 N.am      1 <0>        -0.6669
     25 C19         0.4926  -13.3208    1.0163 C.ar      1 <0>         0.1468
     26 C20        -0.2405  -14.4572    1.3328 C.ar      1 <0>        -0.1302
     27 C21        -0.8818  -15.1640    0.3346 C.ar      1 <0>        -0.0907
     28 C22        -0.7942  -14.7410   -0.9802 C.ar      1 <0>        -0.0476
     29 C23        -0.0641  -13.6093   -1.2984 C.ar      1 <0>        -0.0908
     30 C24         0.5741  -12.8953   -0.3033 C.ar      1 <0>        -0.1068
     31 Cl1        -1.6011  -15.6321   -2.2326 Cl        1 <0>        -0.0676
     32 H1         -5.2298   -5.8989    5.4142 H         1 <0>         0.0629
     33 H2         -6.1729   -4.5250    4.7886 H         1 <0>         0.0804
     34 H3         -5.6016   -5.7922    3.6768 H         1 <0>         0.0633
     35 H4         -4.1245   -3.5004    4.4131 H         1 <0>         0.4139
     36 H5         -0.5450   -6.1232    3.4760 H         1 <0>         0.1544
     37 H6          1.4475   -2.3335    3.2930 H         1 <0>         0.1526
     38 H7         -0.6953   -1.2481    3.8283 H         1 <0>         0.1752
     39 H8          0.7743   -6.4665    1.1811 H         1 <0>         0.1347
     40 H9          0.7778   -8.9026    1.1578 H         1 <0>         0.1778
     41 H10         2.8272   -6.4072    4.9180 H         1 <0>         0.1423
     42 H11         3.4274   -8.5424    6.0070 H         1 <0>         0.1380
     43 H12         3.4388  -10.9746    5.9956 H         1 <0>         0.1375
     44 H13         2.4363  -12.2346    4.1437 H         1 <0>         0.1311
     45 H14         1.5332  -13.0715    2.7796 H         1 <0>         0.4128
     46 H15        -0.3086  -14.7881    2.3586 H         1 <0>         0.1365
     47 H16        -1.4519  -16.0477    0.5802 H         1 <0>         0.1391
     48 H17         0.0029  -13.2816   -2.3253 H         1 <0>         0.1384
     49 H18         1.1400  -12.0096   -0.5516 H         1 <0>         0.1493
@<TRIPOS>BOND
     1    1    2 1
     2    1   32 1
     3    1   33 1
     4    1   34 1
     5    2    3 am
     6    2   35 1
     7    3    4 2
     8    3    5 1
     9    5   10 ar
    10    5    6 ar
    11    6    7 ar
    12    6   36 1
    13    7    8 ar
    14    7   11 1
    15    8    9 ar
    16    8   37 1
    17    9   10 ar
    18    9   38 1
    19   11   12 1
    20   12   17 ar
    21   12   13 ar
    22   13   14 ar
    23   13   39 1
    24   14   15 ar
    25   14   40 1
    26   15   21 ar
    27   15   16 ar
    28   16   17 ar
    29   16   18 ar
    30   17   41 1
    31   18   19 ar
    32   18   42 1
    33   19   20 ar
    34   19   43 1
    35   20   21 ar
    36   20   44 1
    37   21   22 1
    38   22   23 2
    39   22   24 am
    40   24   25 1
    41   24   45 1
    42   25   30 ar
    43   25   26 ar
    44   26   27 ar
    45   26   46 1
    46   27   28 ar
    47   27   47 1
    48   28   29 ar
    49   28   31 1
    50   29   30 ar
    51   29   48 1
    52   30   49 1
@<TRIPOS>MOLECULE
CHEMBL495749
   53    57     0     0     0
SMALL
USER_CHARGES

@<TRIPOS>ATOM
      1 C1         -0.2936    1.3564   -0.0893 C.3       1 <0>        -0.0509
      2 N1         -0.0767   -0.0882    0.0662 N.4       1 <0>        -0.3858
      3 C2         -1.3613   -0.7491    0.3263 C.3       1 <0>        -0.0101
      4 C3         -1.1529   -2.2628    0.4087 C.3       1 <0>        -0.1446
      5 C4         -0.1760   -2.5770    1.5454 C.3       1 <0>        -0.1617
      6 C5          1.1346   -1.8232    1.3019 C.3       1 <0>         0.0586
      7 C6          0.8415   -0.3258    1.1865 C.3       1 <0>        -0.0008
      8 O1          1.7338   -2.2870    0.0903 O.3       1 <0>        -0.3225
      9 C7          2.5164   -3.3923    0.1739 C.ar      1 <0>         0.1927
     10 C8          2.6208   -4.0843    1.3679 C.ar      1 <0>        -0.2400
     11 C9          3.4197   -5.2123    1.4542 C.ar      1 <0>        -0.0100
     12 C10         4.1231   -5.6650    0.3566 C.ar      1 <0>        -0.1879
     13 C11         4.0356   -4.9891   -0.8544 C.ar      1 <0>         0.2524
     14 C12         3.2214   -3.8458   -0.9508 C.ar      1 <0>        -0.1692
     15 C13         3.1308   -3.1417   -2.2335 C.2       1 <0>         0.3633
     16 C14         3.8592   -3.6459   -3.3150 C.2       1 <0>        -0.2641
     17 C15         4.6519   -4.8046   -3.1441 C.2       1 <0>         0.5724
     18 O2          5.2837   -5.2376   -4.0921 O.2       1 <0>        -0.5432
     19 N2          4.7353   -5.4326   -1.9596 N.am      1 <0>        -0.6318
     20 H1          5.2905   -6.2242   -1.8818 H         1 <0>         0.4254
     21 C16         3.8010   -2.9751   -4.6239 C.2       1 <0>         0.3769
     22 N3          4.5462   -3.3202   -5.7212 N.pl3     1 <0>        -0.5815
     23 H2          5.1959   -4.0386   -5.7731 H         1 <0>         0.4354
     24 C17         4.1979   -2.4525   -6.7411 C.ar      1 <0>         0.0472
     25 C18         4.6039   -2.3078   -8.0596 C.ar      1 <0>        -0.1070
     26 C19         4.0520   -1.3158   -8.8432 C.ar      1 <0>        -0.1029
     27 C20         3.0926   -0.4598   -8.3219 C.ar      1 <0>        -0.1217
     28 C21         2.6772   -0.5879   -7.0160 C.ar      1 <0>        -0.0771
     29 C22         3.2259   -1.5885   -6.2076 C.ar      1 <0>         0.0558
     30 N4          3.0230   -1.9585   -4.9188 N.2       1 <0>        -0.5259
     31 N5          2.3515   -2.0182   -2.3690 N.pl3     1 <0>        -0.8182
     32 H3          0.6589    1.8473   -0.2891 H         1 <0>         0.1264
     33 H4         -0.9754    1.5340   -0.9210 H         1 <0>         0.1279
     34 H5         -0.7251    1.7597    0.8268 H         1 <0>         0.1255
     35 H6         -1.7711   -0.3874    1.2694 H         1 <0>         0.1323
     36 H7         -2.0565   -0.5219   -0.4819 H         1 <0>         0.1347
     37 H8         -2.1075   -2.7515    0.6036 H         1 <0>         0.1168
     38 H9         -0.7434   -2.6256   -0.5340 H         1 <0>         0.0940
     39 H10        -0.6076   -2.2604    2.4949 H         1 <0>         0.1018
     40 H11         0.0196   -3.6490    1.5719 H         1 <0>         0.1044
     41 H12         1.8151   -1.9978    2.1353 H         1 <0>         0.1271
     42 H13         1.7726    0.2139    1.0133 H         1 <0>         0.1420
     43 H14         0.3848    0.0269    2.1112 H         1 <0>         0.1525
     44 H15         2.0770   -3.7429    2.2363 H         1 <0>         0.1407
     45 H16         3.4934   -5.7436    2.3915 H         1 <0>         0.1455
     46 H17         4.7427   -6.5458    0.4390 H         1 <0>         0.1473
     47 H18         5.3508   -2.9702   -8.4716 H         1 <0>         0.1248
     48 H19         4.3692   -1.2045   -9.8696 H         1 <0>         0.1326
     49 H20         2.6687    0.3133   -8.9456 H         1 <0>         0.1308
     50 H21         1.9302    0.0822   -6.6169 H         1 <0>         0.1254
     51 H22         2.2019   -1.4369   -1.6070 H         1 <0>         0.3914
     52 H23         1.9511   -1.8063   -3.2266 H         1 <0>         0.4276
     53 H24         0.3250   -0.4601   -0.7813 H         1 <0>         0.4256
@<TRIPOS>BOND
     1    1    2 1
     2    1   32 1
     3    1   33 1
     4    1   34 1
     5    2    7 1
     6    2    3 1
     7    2   53 1
     8    3    4 1
     9    3   35 1
    10    3   36 1
    11    4    5 1
    12    4   37 1
    13    4   38 1
    14    5    6 1
    15    5   39 1
    16    5   40 1
    17    6    7 1
    18    6    8 1
    19    6   41 1
    20    7   42 1
    21    7   43 1
    22    8    9 1
    23    9   14 ar
    24    9   10 ar
    25   10   11 ar
    26   10   44 1
    27   11   12 ar
    28   11   45 1
    29   12   13 ar
    30   12   46 1
    31   13   19 1
    32   13   14 ar
    33   14   15 1
    34   15   16 2
    35   15   31 1
    36   16   17 1
    37   16   21 1
    38   17   18 2
    39   17   19 am
    40   19   20 1
    41   21   30 2
    42   21   22 1
    43   22   23 1
    44   22   24 1
    45   24   29 ar
    46   24   25 ar
    47   25   26 ar
    48   25   47 1
    49   26   27 ar
    50   26   48 1
    51   27   28 ar
    52   27   49 1
    53   28   29 ar
    54   28   50 1
    55   29   30 1
    56   31   51 1
    57   31   52 1
@<TRIPOS>MOLECULE
CHEMBL495749__1
   53    57     0     0     0
SMALL
USER_CHARGES

@<TRIPOS>ATOM
      1 C1         -0.1452    1.3049    0.0137 C.3       1 <0>        -0.0465
      2 N1         -0.1520   -0.1641    0.0121 N.4       1 <0>        -0.3783
      3 C2         -1.5380   -0.6455   -0.0273 C.3       1 <0>        -0.0136
      4 C3         -1.5491   -2.1734   -0.1109 C.3       1 <0>        -0.1423
      5 C4         -0.8410   -2.7515    1.1177 C.3       1 <0>        -0.1687
      6 C5          0.5798   -2.1846    1.1897 C.3       1 <0>         0.0687
      7 C6          0.5120   -0.6563    1.2251 C.3       1 <0>        -0.0098
      8 O1          1.2244   -2.6612    2.3726 O.3       1 <0>        -0.2979
      9 C7          1.8274   -3.8746    2.2993 C.ar      1 <0>         0.1901
     10 C8          1.7101   -4.6436    1.1547 C.ar      1 <0>        -0.2450
     11 C9          2.3248   -5.8824    1.0792 C.ar      1 <0>        -0.0117
     12 C10         3.0620   -6.3705    2.1388 C.ar      1 <0>        -0.1890
     13 C11         3.1961   -5.6185    3.2996 C.ar      1 <0>         0.2552
     14 C12         2.5791   -4.3567    3.3809 C.ar      1 <0>        -0.1675
     15 C13         2.7299   -3.5676    4.6073 C.2       1 <0>         0.3658
     16 C14         3.4921   -4.1063    5.6481 C.2       1 <0>        -0.2781
     17 C15         4.0879   -5.3794    5.4913 C.2       1 <0>         0.5743
     18 O2          4.7508   -5.8417    6.4036 O.2       1 <0>        -0.5456
     19 N2          3.9311   -6.0969    4.3666 N.am      1 <0>        -0.6330
     20 H1          4.3549   -6.9666    4.2972 H         1 <0>         0.4246
     21 C16         3.6737   -3.3529    6.8995 C.2       1 <0>         0.3803
     22 N3          4.3509   -3.8055    8.0017 N.pl3     1 <0>        -0.5826
     23 H2          4.7889   -4.6659    8.0952 H         1 <0>         0.4349
     24 C17         4.2932   -2.8053    8.9561 C.ar      1 <0>         0.0462
     25 C18         4.7833   -2.6808   10.2477 C.ar      1 <0>        -0.1076
     26 C19         4.5508   -1.5239   10.9620 C.ar      1 <0>        -0.1042
     27 C20         3.8289   -0.4820   10.3977 C.ar      1 <0>        -0.1227
     28 C21         3.3347   -0.5872    9.1175 C.ar      1 <0>        -0.0764
     29 C22         3.5615   -1.7529    8.3790 C.ar      1 <0>         0.0572
     30 N4          3.2162   -2.1427    7.1268 N.2       1 <0>        -0.5276
     31 N5          2.1392   -2.3331    4.7300 N.pl3     1 <0>        -0.8056
     32 H3          0.8838    1.6635    0.0362 H         1 <0>         0.1270
     33 H4         -0.6381    1.6715   -0.8868 H         1 <0>         0.1294
     34 H5         -0.6765    1.6697    0.8928 H         1 <0>         0.1254
     35 H6         -2.0583   -0.3277    0.8762 H         1 <0>         0.1335
     36 H7         -2.0416   -0.2306   -0.9004 H         1 <0>         0.1379
     37 H8         -2.5791   -2.5289   -0.1382 H         1 <0>         0.1224
     38 H9         -1.0292   -2.4923   -1.0143 H         1 <0>         0.0920
     39 H10        -1.3896   -2.4755    2.0182 H         1 <0>         0.0978
     40 H11        -0.7963   -3.8375    1.0352 H         1 <0>         0.1051
     41 H12         1.1439   -2.5037    0.3132 H         1 <0>         0.1027
     42 H13         1.5219   -0.2493    1.2765 H         1 <0>         0.1433
     43 H14        -0.0520   -0.3383    2.1019 H         1 <0>         0.1431
     44 H15         1.1363   -4.2762    0.3167 H         1 <0>         0.1369
     45 H16         2.2257   -6.4734    0.1808 H         1 <0>         0.1442
     46 H17         3.5352   -7.3386    2.0658 H         1 <0>         0.1472
     47 H18         5.3455   -3.4881   10.6934 H         1 <0>         0.1241
     48 H19         4.9331   -1.4285   11.9676 H         1 <0>         0.1318
     49 H20         3.6530    0.4183   10.9677 H         1 <0>         0.1304
     50 H21         2.7733    0.2277    8.6849 H         1 <0>         0.1262
     51 H22         1.3515   -2.1182    4.2063 H         1 <0>         0.4012
     52 H23         2.5099   -1.6766    5.3404 H         1 <0>         0.4288
     53 H24         0.3421   -0.5008   -0.8007 H         1 <0>         0.4261
@<TRIPOS>BOND
     1    1    2 1
     2    1   32 1
     3    1   33 1
     4    1   34 1
     5    2    7 1
     6    2    3 1
     7    2   53 1
     8    3    4 1
     9    3   35 1
    10    3   36 1
    11    4    5 1
    12    4   37 1
    13    4   38 1
    14    5    6 1
    15    5   39 1
    16    5   40 1
    17    6    7 1
    18    6    8 1
    19    6   41 1
    20    7   42 1
    21    7   43 1
    22    8    9 1
    23    9   14 ar
    24    9   10 ar
    25   10   11 ar
    26   10   44 1
    27   11   12 ar
    28   11   45 1
    29   12   13 ar
    30   12   46 1
    31   13   19 1
    32   13   14 ar
    33   14   15 1
    34   15   16 2
    35   15   31 1
    36   16   17 1
    37   16   21 1
    38   17   18 2
    39   17   19 am
    40   19   20 1
    41   21   30 2
    42   21   22 1
    43   22   23 1
    44   22   24 1
    45   24   29 ar
    46   24   25 ar
    47   25   26 ar
    48   25   47 1
    49   26   27 ar
    50   26   48 1
    51   27   28 ar
    52   27   49 1
    53   28   29 ar
    54   28   50 1
    55   29   30 1
    56   31   51 1
    57   31   52 1
@<TRIPOS>MOLECULE
CHEMBL518676
   59    64     0     0     0
SMALL
USER_CHARGES

@<TRIPOS>ATOM
      1 C1          0.6113    0.2286    1.2338 C.3       1 <0>         0.0692
      2 N1         -0.2123   -0.0715    0.0600 N.pl3     1 <0>        -0.4590
      3 C2         -0.0022   -1.0791   -0.8383 C.2       1 <0>        -0.0159
      4 C3         -0.9989   -0.9933   -1.7613 C.2       1 <0>         0.0626
      5 N2         -1.7870    0.0471   -1.4167 N.2       1 <0>        -0.4698
      6 C4         -1.3223    0.5940   -0.3290 C.2       1 <0>         0.1964
      7 C5         -1.1849   -1.8795   -2.9299 C.2       1 <0>        -0.0124
      8 C6         -2.1539   -1.8352   -3.8803 C.2       1 <0>        -0.1339
      9 C7         -2.1583   -2.7786   -4.9248 C.ar      1 <0>         0.1648
     10 C8         -1.1109   -3.7249   -4.8878 C.ar      1 <0>        -0.2080
     11 S1         -0.1869   -3.2668   -3.4442 S.3       1 <0>         0.1029
     12 C9         -0.9851   -4.7120   -5.8474 C.ar      1 <0>         0.2122
     13 C10        -1.9317   -4.7530   -6.8700 C.ar      1 <0>        -0.2370
     14 C11        -2.9426   -3.8072   -6.8697 C.ar      1 <0>         0.1599
     15 N3         -3.0378   -2.8829   -5.9475 N.ar      1 <0>        -0.4768
     16 O1          0.0289   -5.6131   -5.7958 O.3       1 <0>        -0.2379
     17 C12         0.0340   -6.6216   -6.7084 C.ar      1 <0>         0.0543
     18 C13        -0.3861   -7.8912   -6.3410 C.ar      1 <0>        -0.0784
     19 C14        -0.3817   -8.9158   -7.2670 C.ar      1 <0>        -0.0652
     20 C15         0.0438   -8.6757   -8.5670 C.ar      1 <0>         0.1502
     21 C16         0.4646   -7.4050   -8.9359 C.ar      1 <0>        -0.1398
     22 C17         0.4546   -6.3783   -8.0100 C.ar      1 <0>         0.0996
     23 F1          0.8585   -5.1402   -8.3693 F         1 <0>        -0.1200
     24 N4          0.0490   -9.7152   -9.5055 N.pl3     1 <0>        -0.6056
     25 C18        -1.0137  -10.5382   -9.6054 C.2       1 <0>         0.5694
     26 S2         -2.3232  -10.3816   -8.5138 S.2       1 <0>        -0.5396
     27 N5         -1.0455  -11.4843  -10.5647 N.am      1 <0>        -0.5450
     28 C19        -2.1873  -12.3638  -10.8565 C.3       1 <0>         0.0956
     29 C20        -1.6914  -13.2372  -12.0254 C.3       1 <0>         0.0811
     30 N6         -0.3228  -12.7569  -12.2680 N.am      1 <0>        -0.5486
     31 C21        -0.0441  -11.7689  -11.4076 C.2       1 <0>         0.6957
     32 O2          1.0224  -11.1860  -11.3906 O.2       1 <0>        -0.5397
     33 C22         0.5479  -13.2498  -13.2464 C.ar      1 <0>         0.1690
     34 C23         1.8635  -12.8077  -13.2935 C.ar      1 <0>        -0.1490
     35 C24         2.7203  -13.2961  -14.2604 C.ar      1 <0>        -0.0898
     36 C25         2.2694  -14.2243  -15.1809 C.ar      1 <0>        -0.1355
     37 C26         0.9599  -14.6662  -15.1369 C.ar      1 <0>        -0.0905
     38 C27         0.0997  -14.1863  -14.1687 C.ar      1 <0>        -0.1484
     39 H1          0.2372   -0.3291    2.0924 H         1 <0>         0.0826
     40 H2          1.6441   -0.0584    1.0361 H         1 <0>         0.0896
     41 H3          0.5654    1.2967    1.4464 H         1 <0>         0.0934
     42 H4          0.7991   -1.8030   -0.8197 H         1 <0>         0.1825
     43 H5         -1.7536    1.4441    0.1787 H         1 <0>         0.2140
     44 H6         -2.9211   -1.0765   -3.8345 H         1 <0>         0.1546
     45 H7         -1.8775   -5.5044   -7.6439 H         1 <0>         0.1473
     46 H8         -3.6792   -3.8326   -7.6591 H         1 <0>         0.1669
     47 H9         -0.7164   -8.0788   -5.3300 H         1 <0>         0.1541
     48 H10        -0.7090   -9.9042   -6.9800 H         1 <0>         0.1651
     49 H11         0.7960   -7.2179   -9.9467 H         1 <0>         0.1499
     50 H12         0.8174   -9.8430  -10.0836 H         1 <0>         0.4298
     51 H13        -2.4249  -12.9822   -9.9909 H         1 <0>         0.1229
     52 H14        -3.0548  -11.7771  -11.1586 H         1 <0>         0.1200
     53 H15        -1.6828  -14.2891  -11.7401 H         1 <0>         0.1092
     54 H16        -2.3127  -13.0841  -12.9078 H         1 <0>         0.1082
     55 H17         2.2161  -12.0825  -12.5751 H         1 <0>         0.1546
     56 H18         3.7435  -12.9524  -14.2978 H         1 <0>         0.1304
     57 H19         2.9414  -14.6046  -15.9360 H         1 <0>         0.1276
     58 H20         0.6106  -15.3909  -15.8574 H         1 <0>         0.1317
     59 H21        -0.9215  -14.5357  -14.1316 H         1 <0>         0.1287
@<TRIPOS>BOND
     1    1    2 1
     2    1   39 1
     3    1   40 1
     4    1   41 1
     5    2    6 1
     6    2    3 1
     7    3    4 2
     8    3   42 1
     9    4    5 1
    10    4    7 1
    11    5    6 2
    12    6   43 1
    13    7   11 1
    14    7    8 2
    15    8    9 1
    16    8   44 1
    17    9   15 ar
    18    9   10 ar
    19   10   11 1
    20   10   12 ar
    21   12   13 ar
    22   12   16 1
    23   13   14 ar
    24   13   45 1
    25   14   15 ar
    26   14   46 1
    27   16   17 1
    28   17   22 ar
    29   17   18 ar
    30   18   19 ar
    31   18   47 1
    32   19   20 ar
    33   19   48 1
    34   20   21 ar
    35   20   24 1
    36   21   22 ar
    37   21   49 1
    38   22   23 1
    39   24   25 1
    40   24   50 1
    41   25   26 2
    42   25   27 1
    43   27   31 am
    44   27   28 1
    45   28   29 1
    46   28   51 1
    47   28   52 1
    48   29   30 1
    49   29   53 1
    50   29   54 1
    51   30   31 am
    52   30   33 1
    53   31   32 2
    54   33   38 ar
    55   33   34 ar
    56   34   35 ar
    57   34   55 1
    58   35   36 ar
    59   35   56 1
    60   36   37 ar
    61   36   57 1
    62   37   38 ar
    63   37   58 1
    64   38   59 1
@<TRIPOS>MOLECULE
CHEMBL518676__1
   60    65     0     0     0
SMALL
USER_CHARGES

@<TRIPOS>ATOM
      1 C1          0.6113    0.2286    1.2338 C.3       1 <0>         0.0534
      2 N1         -0.2123   -0.0715    0.0600 N.pl3     1 <0>        -0.4044
      3 C2         -0.0022   -1.0791   -0.8383 C.2       1 <0>         0.0472
      4 C3         -0.9989   -0.9933   -1.7613 C.2       1 <0>         0.1249
      5 N2         -1.7870    0.0471   -1.4167 N.pl3     1 <0>        -0.4726
      6 C4         -1.3223    0.5940   -0.3290 C.cat     1 <0>         0.3040
      7 C5         -1.1849   -1.8795   -2.9299 C.2       1 <0>        -0.1216
      8 C6         -2.1539   -1.8352   -3.8803 C.2       1 <0>        -0.0815
      9 C7         -2.1583   -2.7786   -4.9248 C.ar      1 <0>         0.1378
     10 C8         -1.1109   -3.7249   -4.8878 C.ar      1 <0>        -0.1926
     11 S1         -0.1869   -3.2668   -3.4442 S.3       1 <0>         0.1709
     12 C9         -0.9851   -4.7120   -5.8474 C.ar      1 <0>         0.2108
     13 C10        -1.9317   -4.7530   -6.8700 C.ar      1 <0>        -0.2107
     14 C11        -2.9426   -3.8072   -6.8697 C.ar      1 <0>         0.1680
     15 N3         -3.0378   -2.8829   -5.9475 N.ar      1 <0>        -0.4679
     16 O1          0.0289   -5.6131   -5.7958 O.3       1 <0>        -0.2337
     17 C12         0.0340   -6.6216   -6.7084 C.ar      1 <0>         0.0404
     18 C13        -0.3861   -7.8912   -6.3410 C.ar      1 <0>        -0.0751
     19 C14        -0.3817   -8.9158   -7.2670 C.ar      1 <0>        -0.0652
     20 C15         0.0438   -8.6757   -8.5670 C.ar      1 <0>         0.1618
     21 C16         0.4646   -7.4050   -8.9359 C.ar      1 <0>        -0.1399
     22 C17         0.4546   -6.3783   -8.0100 C.ar      1 <0>         0.1014
     23 F1          0.8585   -5.1402   -8.3693 F         1 <0>        -0.1209
     24 N4          0.0490   -9.7152   -9.5055 N.pl3     1 <0>        -0.6097
     25 C18        -1.0137  -10.5382   -9.6054 C.2       1 <0>         0.5723
     26 S2         -2.3232  -10.3816   -8.5138 S.2       1 <0>        -0.5415
     27 N5         -1.0455  -11.4843  -10.5647 N.am      1 <0>        -0.5438
     28 C19        -2.1873  -12.3638  -10.8565 C.3       1 <0>         0.0952
     29 C20        -1.6914  -13.2372  -12.0254 C.3       1 <0>         0.0802
     30 N6         -0.3228  -12.7569  -12.2680 N.am      1 <0>        -0.5463
     31 C21        -0.0441  -11.7689  -11.4076 C.2       1 <0>         0.6952
     32 O2          1.0224  -11.1860  -11.3906 O.2       1 <0>        -0.5398
     33 C22         0.5479  -13.2498  -13.2464 C.ar      1 <0>         0.1657
     34 C23         1.8635  -12.8077  -13.2935 C.ar      1 <0>        -0.1486
     35 C24         2.7203  -13.2961  -14.2604 C.ar      1 <0>        -0.0901
     36 C25         2.2694  -14.2243  -15.1809 C.ar      1 <0>        -0.1331
     37 C26         0.9599  -14.6662  -15.1369 C.ar      1 <0>        -0.0898
     38 C27         0.0997  -14.1863  -14.1687 C.ar      1 <0>        -0.1469
     39 H1          0.2372   -0.3291    2.0924 H         1 <0>         0.1146
     40 H2          1.6441   -0.0584    1.0361 H         1 <0>         0.1203
     41 H3          0.5654    1.2967    1.4464 H         1 <0>         0.1192
     42 H4          0.7991   -1.8030   -0.8197 H         1 <0>         0.2279
     43 H5         -1.7536    1.4441    0.1787 H         1 <0>         0.2683
     44 H6         -2.9211   -1.0765   -3.8345 H         1 <0>         0.1498
     45 H7         -1.8775   -5.5044   -7.6439 H         1 <0>         0.1572
     46 H8         -3.6792   -3.8326   -7.6591 H         1 <0>         0.1768
     47 H9         -0.7164   -8.0788   -5.3300 H         1 <0>         0.1544
     48 H10        -0.7090   -9.9042   -6.9800 H         1 <0>         0.1679
     49 H11         0.7960   -7.2179   -9.9467 H         1 <0>         0.1529
     50 H12         0.8174   -9.8430  -10.0836 H         1 <0>         0.4315
     51 H13        -2.4249  -12.9822   -9.9909 H         1 <0>         0.1238
     52 H14        -3.0548  -11.7771  -11.1586 H         1 <0>         0.1206
     53 H15        -1.6828  -14.2891  -11.7401 H         1 <0>         0.1106
     54 H16        -2.3127  -13.0841  -12.9078 H         1 <0>         0.1095
     55 H17         2.2161  -12.0825  -12.5751 H         1 <0>         0.1538
     56 H18         3.7435  -12.9524  -14.2978 H         1 <0>         0.1309
     57 H19         2.9414  -14.6046  -15.9360 H         1 <0>         0.1288
     58 H20         0.6106  -15.3909  -15.8574 H         1 <0>         0.1329
     59 H21        -0.9215  -14.5357  -14.1316 H         1 <0>         0.1292
     60 H22        -2.5757    0.3391   -1.9001 H         1 <0>         0.4660
@<TRIPOS>BOND
     1    1    2 1
     2    1   39 1
     3    1   40 1
     4    1   41 1
     5    2    6 1
     6    2    3 1
     7    3    4 2
     8    3   42 1
     9    4    5 1
    10    4    7 1
    11    5    6 2
    12    5   60 1
    13    6   43 1
    14    7   11 1
    15    7    8 2
    16    8    9 1
    17    8   44 1
    18    9   15 ar
    19    9   10 ar
    20   10   11 1
    21   10   12 ar
    22   12   13 ar
    23   12   16 1
    24   13   14 ar
    25   13   45 1
    26   14   15 ar
    27   14   46 1
    28   16   17 1
    29   17   22 ar
    30   17   18 ar
    31   18   19 ar
    32   18   47 1
    33   19   20 ar
    34   19   48 1
    35   20   21 ar
    36   20   24 1
    37   21   22 ar
    38   21   49 1
    39   22   23 1
    40   24   25 1
    41   24   50 1
    42   25   26 2
    43   25   27 1
    44   27   31 am
    45   27   28 1
    46   28   29 1
    47   28   51 1
    48   28   52 1
    49   29   30 1
    50   29   53 1
    51   29   54 1
    52   30   31 am
    53   30   33 1
    54   31   32 2
    55   33   38 ar
    56   33   34 ar
    57   34   35 ar
    58   34   55 1
    59   35   36 ar
    60   35   56 1
    61   36   37 ar
    62   36   57 1
    63   37   38 ar
    64   37   58 1
    65   38   59 1
@<TRIPOS>MOLECULE
CHEMBL214063
   77    83     0     0     0
SMALL
USER_CHARGES

@<TRIPOS>ATOM
      1 C1         -1.6628    1.2034    0.0043 C.3       1 <0>        -0.1156
      2 C2         -1.0079   -0.1539    0.0011 C.ar      1 <0>        -0.0657
      3 C3         -0.5699   -0.7067   -1.1886 C.ar      1 <0>        -0.1382
      4 C4          0.0314   -1.9517   -1.1957 C.ar      1 <0>        -0.0977
      5 C5          0.1966   -2.6473   -0.0138 C.ar      1 <0>        -0.1338
      6 C6         -0.2420   -2.0951    1.1822 C.ar      1 <0>         0.1637
      7 C7         -0.8406   -0.8418    1.1867 C.ar      1 <0>        -0.1504
      8 N1         -0.0762   -2.7973    2.3813 N.am      1 <0>        -0.6804
      9 C8         -0.0956   -4.1449    2.3812 C.2       1 <0>         0.7145
     10 O1         -0.0920   -4.7529    1.3283 O.2       1 <0>        -0.5615
     11 N2         -0.1191   -4.8186    3.5483 N.am      1 <0>        -0.5922
     12 C9         -0.0305   -6.2809    3.5520 C.3       1 <0>         0.2102
     13 C10         1.4159   -6.6963    3.6314 C.2       1 <0>        -0.1617
     14 C11         2.1753   -6.9377    4.7301 C.2       1 <0>        -0.1414
     15 C12         3.4921   -7.3112    4.5674 C.2       1 <0>        -0.1219
     16 C13         3.9913   -7.4264    3.2984 C.2       1 <0>        -0.1022
     17 S1          2.5694   -7.0050    2.3043 S.3       1 <0>         0.1217
     18 C14         5.3532   -7.8068    2.8633 C.2       1 <0>         0.1864
     19 C15         5.6745   -8.5482    1.7129 C.2       1 <0>        -0.2149
     20 C16         7.0280   -8.6875    1.6646 C.2       1 <0>         0.0952
     21 N3          7.5425   -8.0486    2.7585 N.pl3     1 <0>        -0.4507
     22 H1          8.4822   -7.9808    2.9892 H         1 <0>         0.4436
     23 N4          6.4760   -7.5044    3.4841 N.2       1 <0>        -0.2427
     24 C17         7.4155   -9.4645    0.4664 C.ar      1 <0>        -0.0243
     25 C18         8.6660   -9.8634   -0.0126 C.ar      1 <0>        -0.0917
     26 C19         8.7545  -10.5958   -1.1778 C.ar      1 <0>        -0.1170
     27 C20         7.6101  -10.9381   -1.8761 C.ar      1 <0>        -0.0824
     28 C21         6.3676  -10.5466   -1.4081 C.ar      1 <0>        -0.0721
     29 C22         6.2691   -9.8150   -0.2454 C.ar      1 <0>        -0.0646
     30 C23         5.0916   -9.2494    0.5100 C.3       1 <0>        -0.0132
     31 C24         7.7166  -11.7382   -3.1487 C.3       1 <0>         0.0983
     32 N5          7.6569  -13.1715   -2.8325 N.3       1 <0>        -0.5343
     33 C25         8.8365  -13.5905   -2.0625 C.3       1 <0>         0.0189
     34 C26         8.7073  -15.0724   -1.7030 C.3       1 <0>        -0.0024
     35 N6          8.5967  -15.8670   -2.9334 N.4       1 <0>        -0.3884
     36 C27         7.4007  -15.4540   -3.6793 C.3       1 <0>        -0.0025
     37 C28         7.5191  -13.9753   -4.0552 C.3       1 <0>         0.0248
     38 C29         8.4908  -17.2910   -2.5884 C.3       1 <0>        -0.0459
     39 C30        -0.2332   -4.0885    4.8133 C.3       1 <0>         0.0591
     40 C31        -0.2427   -4.9094    6.1044 C.3       1 <0>        -0.1761
     41 C32        -1.5309   -4.2500    5.6076 C.3       1 <0>        -0.1852
     42 H2         -0.9022    1.9735    0.1325 H         1 <0>         0.0719
     43 H3         -2.1815    1.3588   -0.9417 H         1 <0>         0.0686
     44 H4         -2.3786    1.2595    0.8245 H         1 <0>         0.0663
     45 H5         -0.6983   -0.1650   -2.1140 H         1 <0>         0.1221
     46 H6          0.3720   -2.3809   -2.1264 H         1 <0>         0.1243
     47 H7          0.6660   -3.6199   -0.0201 H         1 <0>         0.1492
     48 H8         -1.1785   -0.4075    2.1160 H         1 <0>         0.1232
     49 H9          0.0527   -2.3141    3.2124 H         1 <0>         0.4068
     50 H10        -0.5696   -6.6754    4.4133 H         1 <0>         0.1069
     51 H11        -0.4717   -6.6739    2.6360 H         1 <0>         0.1072
     52 H12         1.7532   -6.8382    5.7192 H         1 <0>         0.1378
     53 H13         4.1180   -7.5088    5.4250 H         1 <0>         0.1366
     54 H14         9.5622   -9.5983    0.5288 H         1 <0>         0.1264
     55 H15         9.7216  -10.9032   -1.5472 H         1 <0>         0.1248
     56 H16         5.4756  -10.8145   -1.9549 H         1 <0>         0.1335
     57 H17         4.4279  -10.0534    0.8282 H         1 <0>         0.1045
     58 H18         4.5501   -8.5384   -0.1141 H         1 <0>         0.1048
     59 H19         6.8916  -11.4777   -3.8118 H         1 <0>         0.1003
     60 H20         8.6629  -11.5138   -3.6408 H         1 <0>         0.0586
     61 H21         9.7345  -13.4386   -2.6613 H         1 <0>         0.0611
     62 H22         8.9036  -12.9993   -1.1493 H         1 <0>         0.1265
     63 H23         9.5879  -15.3888   -1.1441 H         1 <0>         0.1351
     64 H24         7.8166  -15.2218   -1.0927 H         1 <0>         0.1377
     65 H25         7.3126  -16.0533   -4.5855 H         1 <0>         0.1363
     66 H26         6.5167  -15.6015   -3.0589 H         1 <0>         0.1380
     67 H27         6.6249  -13.6648   -4.5958 H         1 <0>         0.1253
     68 H28         8.3953  -13.8297   -4.6869 H         1 <0>         0.0616
     69 H29         7.6062  -17.4507   -1.9719 H         1 <0>         0.1232
     70 H30         8.4088  -17.8809   -3.5013 H         1 <0>         0.1244
     71 H31         9.3789  -17.5980   -2.0360 H         1 <0>         0.1239
     72 H32         0.2550   -3.1143    4.8396 H         1 <0>         0.1244
     73 H33        -0.1641   -5.9927    6.0126 H         1 <0>         0.1042
     74 H34         0.2394   -4.4754    6.9803 H         1 <0>         0.1088
     75 H35        -1.8962   -3.3822    6.1567 H         1 <0>         0.1066
     76 H36        -2.2997   -4.8995    5.1890 H         1 <0>         0.1014
     77 H37         9.4160  -15.7195   -3.5035 H         1 <0>         0.4222
@<TRIPOS>BOND
     1    1    2 1
     2    1   42 1
     3    1   43 1
     4    1   44 1
     5    2    7 ar
     6    2    3 ar
     7    3    4 ar
     8    3   45 1
     9    4    5 ar
    10    4   46 1
    11    5    6 ar
    12    5   47 1
    13    6    7 ar
    14    6    8 1
    15    7   48 1
    16    8    9 am
    17    8   49 1
    18    9   10 2
    19    9   11 am
    20   11   12 1
    21   11   39 1
    22   12   13 1
    23   12   50 1
    24   12   51 1
    25   13   17 1
    26   13   14 2
    27   14   15 1
    28   14   52 1
    29   15   16 2
    30   15   53 1
    31   16   17 1
    32   16   18 1
    33   18   23 2
    34   18   19 1
    35   19   30 1
    36   19   20 2
    37   20   21 1
    38   20   24 1
    39   21   22 1
    40   21   23 1
    41   24   29 ar
    42   24   25 ar
    43   25   26 ar
    44   25   54 1
    45   26   27 ar
    46   26   55 1
    47   27   28 ar
    48   27   31 1
    49   28   29 ar
    50   28   56 1
    51   29   30 1
    52   30   57 1
    53   30   58 1
    54   31   32 1
    55   31   59 1
    56   31   60 1
    57   32   37 1
    58   32   33 1
    59   33   34 1
    60   33   61 1
    61   33   62 1
    62   34   35 1
    63   34   63 1
    64   34   64 1
    65   35   36 1
    66   35   38 1
    67   35   77 1
    68   36   37 1
    69   36   65 1
    70   36   66 1
    71   37   67 1
    72   37   68 1
    73   38   69 1
    74   38   70 1
    75   38   71 1
    76   39   41 1
    77   39   40 1
    78   39   72 1
    79   40   41 1
    80   40   73 1
    81   40   74 1
    82   41   75 1
    83   41   76 1
@<TRIPOS>MOLECULE
CHEMBL214063__1
   77    83     0     0     0
SMALL
USER_CHARGES

@<TRIPOS>ATOM
      1 C1         -1.6631    1.2033    0.0043 C.3       1 <0>        -0.1158
      2 C2         -1.0082   -0.1539    0.0011 C.ar      1 <0>        -0.0654
      3 C3         -0.5703   -0.7068   -1.1886 C.ar      1 <0>        -0.1373
      4 C4          0.0311   -1.9517   -1.1958 C.ar      1 <0>        -0.0973
      5 C5          0.1963   -2.6474   -0.0139 C.ar      1 <0>        -0.1338
      6 C6         -0.2422   -2.0951    1.1822 C.ar      1 <0>         0.1623
      7 C7         -0.8408   -0.8418    1.1867 C.ar      1 <0>        -0.1501
      8 N1         -0.0763   -2.7973    2.3813 N.am      1 <0>        -0.6799
      9 C8         -0.0957   -4.1449    2.3812 C.2       1 <0>         0.7139
     10 O1         -0.0920   -4.7530    1.3283 O.2       1 <0>        -0.5609
     11 N2         -0.1191   -4.8186    3.5483 N.am      1 <0>        -0.5927
     12 C9         -0.0304   -6.2809    3.5520 C.3       1 <0>         0.2086
     13 C10         1.4160   -6.6962    3.6313 C.2       1 <0>        -0.1579
     14 C11         2.1756   -6.9377    4.7308 C.2       1 <0>        -0.1444
     15 C12         3.4915   -7.3104    4.5691 C.2       1 <0>        -0.1259
     16 C13         3.9916   -7.4253    3.2977 C.2       1 <0>        -0.1304
     17 S1          2.5692   -7.0048    2.3040 S.3       1 <0>         0.1393
     18 C14         5.3484   -7.8032    2.8641 C.2       1 <0>         0.1959
     19 C15         5.6632   -8.6801    1.8669 C.2       1 <0>        -0.2239
     20 C16         7.0620   -8.7546    1.7771 C.2       1 <0>         0.0874
     21 N3          7.5733   -7.9491    2.6895 N.2       1 <0>        -0.2439
     22 H1          6.6122   -6.6938    4.1036 H         1 <0>         0.4484
     23 N4          6.5223   -7.3359    3.3821 N.pl3     1 <0>        -0.4527
     24 C17         7.4327   -9.7046    0.6974 C.ar      1 <0>        -0.0056
     25 C18         8.6805  -10.1160    0.2257 C.ar      1 <0>        -0.0823
     26 C19         8.7606  -11.0261   -0.8076 C.ar      1 <0>        -0.1194
     27 C20         7.6079  -11.5334   -1.3800 C.ar      1 <0>        -0.0830
     28 C21         6.3682  -11.1301   -0.9175 C.ar      1 <0>        -0.0758
     29 C22         6.2786  -10.2206    0.1159 C.ar      1 <0>        -0.0665
     30 C23         5.0941   -9.6047    0.8195 C.3       1 <0>        -0.0035
     31 C24         7.7030  -12.5267   -2.5093 C.3       1 <0>         0.0989
     32 N5          7.7373  -13.8893   -1.9615 N.3       1 <0>        -0.5343
     33 C25         8.9712  -14.1184   -1.1965 C.3       1 <0>         0.0186
     34 C26         8.9408  -15.5250   -0.5945 C.3       1 <0>        -0.0024
     35 N6          8.8209  -16.5163   -1.6717 N.4       1 <0>        -0.3884
     36 C27         7.5720  -16.2899   -2.4111 C.3       1 <0>        -0.0023
     37 C28         7.5910  -14.8897   -3.0282 C.3       1 <0>         0.0248
     38 C29         8.8099  -17.8672   -1.0947 C.3       1 <0>        -0.0458
     39 C30        -0.2332   -4.0885    4.8133 C.3       1 <0>         0.0587
     40 C31        -0.2427   -4.9094    6.1044 C.3       1 <0>        -0.1766
     41 C32        -1.5309   -4.2500    5.6076 C.3       1 <0>        -0.1846
     42 H2         -0.9024    1.9735    0.1325 H         1 <0>         0.0721
     43 H3         -2.1817    1.3587   -0.9417 H         1 <0>         0.0690
     44 H4         -2.3787    1.2595    0.8246 H         1 <0>         0.0664
     45 H5         -0.6986   -0.1650   -2.1140 H         1 <0>         0.1226
     46 H6          0.3716   -2.3809   -2.1265 H         1 <0>         0.1248
     47 H7          0.6658   -3.6200   -0.0201 H         1 <0>         0.1488
     48 H8         -1.1786   -0.4075    2.1160 H         1 <0>         0.1232
     49 H9          0.0526   -2.3141    3.2124 H         1 <0>         0.4067
     50 H10        -0.5695   -6.6754    4.4133 H         1 <0>         0.1079
     51 H11        -0.4716   -6.6739    2.6360 H         1 <0>         0.1082
     52 H12         1.7531   -6.8383    5.7197 H         1 <0>         0.1392
     53 H13         4.1173   -7.5078    5.4269 H         1 <0>         0.1345
     54 H14         9.5827   -9.7216    0.6694 H         1 <0>         0.1301
     55 H15         9.7267  -11.3434   -1.1715 H         1 <0>         0.1246
     56 H16         5.4696  -11.5275   -1.3658 H         1 <0>         0.1316
     57 H17         4.4929  -10.3816    1.2919 H         1 <0>         0.0986
     58 H18         4.4885   -9.0404    0.1103 H         1 <0>         0.0991
     59 H19         6.8364  -12.4191   -3.1617 H         1 <0>         0.0994
     60 H20         8.6128  -12.3416   -3.0804 H         1 <0>         0.0583
     61 H21         9.8321  -14.0247   -1.8584 H         1 <0>         0.0612
     62 H22         9.0452  -13.3819   -0.3964 H         1 <0>         0.1277
     63 H23         9.8614  -15.7022   -0.0386 H         1 <0>         0.1352
     64 H24         8.0875  -15.6140    0.0778 H         1 <0>         0.1376
     65 H25         7.4779  -17.0342   -3.2018 H         1 <0>         0.1358
     66 H26         6.7257  -16.3750   -1.7294 H         1 <0>         0.1377
     67 H27         6.6581  -14.7159   -3.5644 H         1 <0>         0.1249
     68 H28         8.4292  -14.8086   -3.7202 H         1 <0>         0.0613
     69 H29         7.9635  -17.9650   -0.4148 H         1 <0>         0.1230
     70 H30         8.7209  -18.6030   -1.8939 H         1 <0>         0.1241
     71 H31         9.7371  -18.0359   -0.5471 H         1 <0>         0.1238
     72 H32         0.2550   -3.1143    4.8396 H         1 <0>         0.1246
     73 H33        -0.1641   -5.9927    6.0126 H         1 <0>         0.1038
     74 H34         0.2394   -4.4754    6.9803 H         1 <0>         0.1088
     75 H35        -1.8962   -3.3822    6.1567 H         1 <0>         0.1072
     76 H36        -2.2997   -4.8995    5.1890 H         1 <0>         0.1018
     77 H37         9.6048  -16.4260   -2.3005 H         1 <0>         0.4222
@<TRIPOS>BOND
     1    1    2 1
     2    1   42 1
     3    1   43 1
     4    1   44 1
     5    2    7 ar
     6    2    3 ar
     7    3    4 ar
     8    3   45 1
     9    4    5 ar
    10    4   46 1
    11    5    6 ar
    12    5   47 1
    13    6    7 ar
    14    6    8 1
    15    7   48 1
    16    8    9 am
    17    8   49 1
    18    9   10 2
    19    9   11 am
    20   11   12 1
    21   11   39 1
    22   12   13 1
    23   12   50 1
    24   12   51 1
    25   13   17 1
    26   13   14 2
    27   14   15 1
    28   14   52 1
    29   15   16 2
    30   15   53 1
    31   16   17 1
    32   16   18 1
    33   18   19 2
    34   18   23 1
    35   19   20 1
    36   19   30 1
    37   20   21 2
    38   20   24 1
    39   21   23 1
    40   22   23 1
    41   24   29 ar
    42   24   25 ar
    43   25   26 ar
    44   25   54 1
    45   26   27 ar
    46   26   55 1
    47   27   28 ar
    48   27   31 1
    49   28   29 ar
    50   28   56 1
    51   29   30 1
    52   30   57 1
    53   30   58 1
    54   31   32 1
    55   31   59 1
    56   31   60 1
    57   32   37 1
    58   32   33 1
    59   33   34 1
    60   33   61 1
    61   33   62 1
    62   34   35 1
    63   34   63 1
    64   34   64 1
    65   35   36 1
    66   35   38 1
    67   35   77 1
    68   36   37 1
    69   36   65 1
    70   36   66 1
    71   37   67 1
    72   37   68 1
    73   38   69 1
    74   38   70 1
    75   38   71 1
    76   39   41 1
    77   39   40 1
    78   39   72 1
    79   40   41 1
    80   40   73 1
    81   40   74 1
    82   41   75 1
    83   41   76 1
@<TRIPOS>MOLECULE
CHEMBL517469
   62    67     0     0     0
SMALL
USER_CHARGES

@<TRIPOS>ATOM
      1 C1         -0.5198    1.6449    3.2830 C.3       1 <0>        -0.1721
      2 C2          0.0739    1.5709    1.8748 C.3       1 <0>         0.0978
      3 N1          0.8139    0.3158    1.7221 N.pl3     1 <0>        -0.4545
      4 C3          2.1362    0.1181    2.0029 C.2       1 <0>        -0.0137
      5 C4          2.4049   -1.1857    1.7188 C.2       1 <0>         0.0617
      6 N2          1.2619   -1.7519    1.2770 N.2       1 <0>        -0.4698
      7 C5          0.3121   -0.8597    1.2833 C.2       1 <0>         0.1974
      8 C6          3.7124   -1.8597    1.8668 C.2       1 <0>        -0.0110
      9 C7          4.0352   -3.1502    1.5940 C.2       1 <0>        -0.1351
     10 C8          5.3503   -3.6057    1.8041 C.ar      1 <0>         0.1655
     11 C9          6.2519   -2.6388    2.3001 C.ar      1 <0>        -0.2089
     12 S1          5.2578   -1.1761    2.4407 S.3       1 <0>         0.1027
     13 C10         7.5769   -2.9396    2.5553 C.ar      1 <0>         0.2124
     14 C11         8.0104   -4.2412    2.3077 C.ar      1 <0>        -0.2400
     15 C12         7.0948   -5.1588    1.8217 C.ar      1 <0>         0.1597
     16 N3          5.8451   -4.8463    1.5884 N.ar      1 <0>        -0.4775
     17 O1          8.4294   -1.9967    3.0317 O.3       1 <0>        -0.2355
     18 C13         9.6914   -2.3838    3.3589 C.ar      1 <0>         0.0272
     19 C14        10.0716   -2.4549    4.6907 C.ar      1 <0>        -0.0627
     20 C15        11.3530   -2.8479    5.0239 C.ar      1 <0>        -0.1391
     21 C16        12.2621   -3.1719    4.0256 C.ar      1 <0>         0.1960
     22 C17        11.8828   -3.1012    2.6920 C.ar      1 <0>        -0.1540
     23 C18        10.5980   -2.7136    2.3591 C.ar      1 <0>         0.1134
     24 F1         10.2261   -2.6497    1.0618 F         1 <0>        -0.1190
     25 N4         13.5622   -3.5697    4.3641 N.am      1 <0>        -0.6704
     26 C19        14.5865   -3.3062    3.5288 C.2       1 <0>         0.7293
     27 O2         14.3668   -2.8634    2.4183 O.2       1 <0>        -0.5030
     28 N5         15.8546   -3.5338    3.9247 N.am      1 <0>        -0.5852
     29 C20        16.2510   -4.1703    5.1897 C.3       1 <0>         0.0691
     30 C21        17.7909   -4.1796    5.1316 C.3       1 <0>         0.0971
     31 N6         18.0986   -3.5473    3.8401 N.am      1 <0>        -0.5822
     32 C22        16.9538   -3.2213    3.2259 C.2       1 <0>         0.7118
     33 O3         16.9159   -2.6866    2.1350 O.2       1 <0>        -0.5087
     34 C23        19.3845   -3.3266    3.3304 C.ar      1 <0>         0.1230
     35 C24        19.9942   -4.2907    2.5396 C.ar      1 <0>        -0.0761
     36 C25        21.2625   -4.0704    2.0382 C.ar      1 <0>        -0.1209
     37 C26        21.9260   -2.8912    2.3234 C.ar      1 <0>        -0.0772
     38 C27        21.3229   -1.9277    3.1107 C.ar      1 <0>        -0.1476
     39 C28        20.0508   -2.1390    3.6109 C.ar      1 <0>         0.1126
     40 F2         19.4591   -1.1954    4.3756 F         1 <0>        -0.1307
     41 H1          0.2836    1.6051    4.0185 H         1 <0>         0.0646
     42 H2         -1.0704    2.5788    3.3966 H         1 <0>         0.0803
     43 H3         -1.1955    0.8037    3.4371 H         1 <0>         0.0658
     44 H4         -0.7296    1.6108    1.1392 H         1 <0>         0.0998
     45 H5          0.7496    2.4122    1.7207 H         1 <0>         0.0960
     46 H6          2.8329    0.8534    2.3776 H         1 <0>         0.1811
     47 H7         -0.7112   -1.0315    0.9835 H         1 <0>         0.2125
     48 H8          3.2831   -3.8269    1.2163 H         1 <0>         0.1545
     49 H9          9.0358   -4.5267    2.4903 H         1 <0>         0.1457
     50 H10         7.4236   -6.1690    1.6272 H         1 <0>         0.1664
     51 H11         9.3653   -2.2024    5.4678 H         1 <0>         0.1523
     52 H12        11.6481   -2.9030    6.0613 H         1 <0>         0.1471
     53 H13        12.5895   -3.3531    1.9152 H         1 <0>         0.1726
     54 H14        13.7250   -4.0347    5.1997 H         1 <0>         0.4156
     55 H15        15.9037   -3.5822    6.0392 H         1 <0>         0.1037
     56 H16        15.8640   -5.1878    5.2438 H         1 <0>         0.1047
     57 H17        18.2083   -3.5961    5.9523 H         1 <0>         0.0960
     58 H18        18.1686   -5.2018    5.1569 H         1 <0>         0.0982
     59 H19        19.4776   -5.2125    2.3165 H         1 <0>         0.1371
     60 H20        21.7368   -4.8206    1.4229 H         1 <0>         0.1393
     61 H21        22.9177   -2.7224    1.9304 H         1 <0>         0.1407
     62 H22        21.8437   -1.0078    3.3316 H         1 <0>         0.1440
@<TRIPOS>BOND
     1    1    2 1
     2    1   41 1
     3    1   42 1
     4    1   43 1
     5    2    3 1
     6    2   44 1
     7    2   45 1
     8    3    7 1
     9    3    4 1
    10    4    5 2
    11    4   46 1
    12    5    6 1
    13    5    8 1
    14    6    7 2
    15    7   47 1
    16    8   12 1
    17    8    9 2
    18    9   10 1
    19    9   48 1
    20   10   16 ar
    21   10   11 ar
    22   11   12 1
    23   11   13 ar
    24   13   14 ar
    25   13   17 1
    26   14   15 ar
    27   14   49 1
    28   15   16 ar
    29   15   50 1
    30   17   18 1
    31   18   23 ar
    32   18   19 ar
    33   19   20 ar
    34   19   51 1
    35   20   21 ar
    36   20   52 1
    37   21   22 ar
    38   21   25 1
    39   22   23 ar
    40   22   53 1
    41   23   24 1
    42   25   26 am
    43   25   54 1
    44   26   27 2
    45   26   28 am
    46   28   32 am
    47   28   29 1
    48   29   30 1
    49   29   55 1
    50   29   56 1
    51   30   31 1
    52   30   57 1
    53   30   58 1
    54   31   32 am
    55   31   34 1
    56   32   33 2
    57   34   39 ar
    58   34   35 ar
    59   35   36 ar
    60   35   59 1
    61   36   37 ar
    62   36   60 1
    63   37   38 ar
    64   37   61 1
    65   38   39 ar
    66   38   62 1
    67   39   40 1
@<TRIPOS>MOLECULE
CHEMBL517469__1
   63    68     0     0     0
SMALL
USER_CHARGES

@<TRIPOS>ATOM
      1 C1         -2.6043    1.6460   -2.0572 C.3       1 <0>        -0.1810
      2 C2         -1.6802    1.5621   -0.8406 C.3       1 <0>         0.0871
      3 N1         -1.8983    0.2894   -0.1487 N.pl3     1 <0>        -0.4024
      4 C3         -2.7992    0.0575    0.8519 C.2       1 <0>         0.0493
      5 C4         -2.6671   -1.2516    1.2005 C.2       1 <0>         0.1236
      6 N2         -1.7044   -1.7875    0.4204 N.pl3     1 <0>        -0.4724
      7 C5         -1.2491   -0.8717   -0.3873 C.cat     1 <0>         0.3043
      8 C6         -3.4381   -1.9587    2.2451 C.2       1 <0>        -0.1199
      9 C7         -3.3431   -3.2560    2.6352 C.2       1 <0>        -0.0829
     10 C8         -4.1751   -3.7450    3.6597 C.ar      1 <0>         0.1387
     11 C9         -5.0703   -2.8028    4.2116 C.ar      1 <0>        -0.1937
     12 S1         -4.7181   -1.3161    3.3099 S.3       1 <0>         0.1708
     13 C10        -5.9488   -3.1377    5.2252 C.ar      1 <0>         0.2111
     14 C11        -5.9307   -4.4489    5.6983 C.ar      1 <0>        -0.2138
     15 C12        -5.0380   -5.3416    5.1302 C.ar      1 <0>         0.1678
     16 N3         -4.2163   -4.9969    4.1710 N.ar      1 <0>        -0.4686
     17 O1         -6.8021   -2.2182    5.7440 O.3       1 <0>        -0.2315
     18 C13        -7.7101   -2.6380    6.6654 C.ar      1 <0>         0.0131
     19 C14        -9.0523   -2.7232    6.3273 C.ar      1 <0>        -0.0584
     20 C15        -9.9751   -3.1495    7.2623 C.ar      1 <0>        -0.1390
     21 C16        -9.5598   -3.4927    8.5420 C.ar      1 <0>         0.2067
     22 C17        -8.2164   -3.4078    8.8818 C.ar      1 <0>        -0.1539
     23 C18        -7.2920   -2.9869    7.9436 C.ar      1 <0>         0.1149
     24 F1         -5.9837   -2.9092    8.2714 F         1 <0>        -0.1201
     25 N4        -10.4965   -3.9242    9.4905 N.am      1 <0>        -0.6718
     26 C19       -10.2890   -3.6836   10.8003 C.2       1 <0>         0.7307
     27 O2         -9.2244   -3.2315   11.1740 O.2       1 <0>        -0.5034
     28 N5        -11.2621   -3.9443   11.6957 N.am      1 <0>        -0.5849
     29 C20       -12.5458   -4.5949   11.3938 C.3       1 <0>         0.0690
     30 C21       -13.2649   -4.6427   12.7559 C.3       1 <0>         0.0962
     31 N6        -12.3100   -4.0139   13.6807 N.am      1 <0>        -0.5801
     32 C22       -11.2110   -3.6570   13.0030 C.2       1 <0>         0.7115
     33 O3        -10.2556   -3.1177   13.5263 O.2       1 <0>        -0.5083
     34 C23       -12.5146   -3.8237   15.0532 C.ar      1 <0>         0.1204
     35 C24       -12.1193   -4.8000   15.9573 C.ar      1 <0>        -0.0760
     36 C25       -12.3224   -4.6099   17.3104 C.ar      1 <0>        -0.1202
     37 C26       -12.9192   -3.4487   17.7659 C.ar      1 <0>        -0.0756
     38 C27       -13.3148   -2.4732   16.8694 C.ar      1 <0>        -0.1470
     39 C28       -13.1090   -2.6541   15.5137 C.ar      1 <0>         0.1127
     40 F2        -13.4903   -1.6987   14.6379 F         1 <0>        -0.1311
     41 H1         -2.4420    2.5930   -2.5720 H         1 <0>         0.1022
     42 H2         -2.3869    0.8214   -2.7361 H         1 <0>         0.0731
     43 H3         -3.6422    1.5834   -1.7301 H         1 <0>         0.0747
     44 H4         -0.6423    1.6247   -1.1677 H         1 <0>         0.1255
     45 H5         -1.8976    2.3867   -0.1617 H         1 <0>         0.1267
     46 H6         -3.4832    0.7737    1.2825 H         1 <0>         0.2268
     47 H7         -0.4755   -1.0167   -1.1267 H         1 <0>         0.2670
     48 H8         -2.6296   -3.9123    2.1592 H         1 <0>         0.1498
     49 H9         -6.5968   -4.7607    6.4892 H         1 <0>         0.1555
     50 H10        -5.0181   -6.3590    5.4920 H         1 <0>         0.1763
     51 H11        -9.3763   -2.4558    5.3323 H         1 <0>         0.1529
     52 H12       -11.0202   -3.2155    6.9981 H         1 <0>         0.1503
     53 H13        -7.8929   -3.6747    9.8771 H         1 <0>         0.1755
     54 H14       -11.2942   -4.3961    9.2045 H         1 <0>         0.4175
     55 H15       -13.1171   -4.0013   10.6801 H         1 <0>         0.1040
     56 H16       -12.3834   -5.6026   11.0113 H         1 <0>         0.1050
     57 H17       -14.1933   -4.0728   12.7186 H         1 <0>         0.0972
     58 H18       -13.4595   -5.6741   13.0498 H         1 <0>         0.0993
     59 H19       -11.6537   -5.7078   15.6030 H         1 <0>         0.1369
     60 H20       -12.0148   -5.3696   18.0137 H         1 <0>         0.1400
     61 H21       -13.0772   -3.3035   18.8244 H         1 <0>         0.1417
     62 H22       -13.7807   -1.5673   17.2283 H         1 <0>         0.1448
     63 H23        -1.4021   -2.7085    0.4535 H         1 <0>         0.4655
@<TRIPOS>BOND
     1    1    2 1
     2    1   41 1
     3    1   42 1
     4    1   43 1
     5    2    3 1
     6    2   44 1
     7    2   45 1
     8    3    7 1
     9    3    4 1
    10    4    5 2
    11    4   46 1
    12    5    6 1
    13    5    8 1
    14    6    7 2
    15    6   63 1
    16    7   47 1
    17    8   12 1
    18    8    9 2
    19    9   10 1
    20    9   48 1
    21   10   16 ar
    22   10   11 ar
    23   11   12 1
    24   11   13 ar
    25   13   14 ar
    26   13   17 1
    27   14   15 ar
    28   14   49 1
    29   15   16 ar
    30   15   50 1
    31   17   18 1
    32   18   23 ar
    33   18   19 ar
    34   19   20 ar
    35   19   51 1
    36   20   21 ar
    37   20   52 1
    38   21   22 ar
    39   21   25 1
    40   22   23 ar
    41   22   53 1
    42   23   24 1
    43   25   26 am
    44   25   54 1
    45   26   27 2
    46   26   28 am
    47   28   32 am
    48   28   29 1
    49   29   30 1
    50   29   55 1
    51   29   56 1
    52   30   31 1
    53   30   57 1
    54   30   58 1
    55   31   32 am
    56   31   34 1
    57   32   33 2
    58   34   39 ar
    59   34   35 ar
    60   35   36 ar
    61   35   59 1
    62   36   37 ar
    63   36   60 1
    64   37   38 ar
    65   37   61 1
    66   38   39 ar
    67   38   62 1
    68   39   40 1
@<TRIPOS>MOLECULE
CHEMBL394577
   69    72     0     0     0
SMALL
USER_CHARGES

@<TRIPOS>ATOM
      1 C1          0.2358    1.1509    0.4580 C.3       1 <0>        -0.1803
      2 C2         -0.0671   -0.1227   -0.3339 C.3       1 <0>         0.1116
      3 C3          0.6840   -1.3012    0.2887 C.3       1 <0>        -0.1741
      4 C4         -1.5487   -0.3959   -0.2982 C.ar      1 <0>        -0.1126
      5 C5         -2.2977    0.0082    0.7925 C.ar      1 <0>        -0.0925
      6 C6         -3.6546   -0.2391    0.8311 C.ar      1 <0>        -0.0517
      7 C7         -4.2710   -0.8976   -0.2327 C.ar      1 <0>        -0.0399
      8 C8         -3.5107   -1.3021   -1.3298 C.ar      1 <0>        -0.0727
      9 C9         -2.1553   -1.0448   -1.3588 C.ar      1 <0>        -0.1258
     10 C10        -5.7270   -1.1666   -0.1974 C.ar      1 <0>         0.3033
     11 C11        -6.4943   -1.1285   -1.3824 C.ar      1 <0>        -0.1828
     12 C12        -7.8661   -1.3908   -1.2893 C.ar      1 <0>         0.2559
     13 N1         -8.3889   -1.6620   -0.1077 N.ar      1 <0>        -0.5461
     14 C13        -7.6374   -1.6892    0.9854 C.ar      1 <0>         0.5886
     15 N2         -6.3345   -1.4536    0.9492 N.ar      1 <0>        -0.5491
     16 N3         -8.2318   -1.9777    2.1992 N.pl3     1 <0>        -0.6235
     17 C14        -9.5787   -2.3493    2.2472 C.ar      1 <0>         0.1549
     18 C15       -10.1344   -3.0875    1.2100 C.ar      1 <0>        -0.1067
     19 C16       -11.4652   -3.4534    1.2607 C.ar      1 <0>        -0.0911
     20 C17       -12.2443   -3.0853    2.3423 C.ar      1 <0>        -0.1026
     21 C18       -11.6942   -2.3504    3.3765 C.ar      1 <0>        -0.0928
     22 C19       -10.3627   -1.9862    3.3348 C.ar      1 <0>        -0.1374
     23 C20       -13.6963   -3.4855    2.3938 C.3       1 <0>        -0.0748
     24 C21       -13.8268   -4.8432    3.0870 C.3       1 <0>         0.0601
     25 N4        -15.2422   -5.2333    3.1372 N.3       1 <0>        -0.5401
     26 C22       -16.0076   -4.3280    4.0059 C.3       1 <0>         0.0199
     27 C23       -17.4836   -4.7314    3.9839 C.3       1 <0>        -0.0032
     28 N5        -17.6195   -6.1174    4.4511 N.4       1 <0>        -0.3884
     29 C24       -16.8700   -7.0122    3.5595 C.3       1 <0>        -0.0028
     30 C25       -15.3889   -6.6277    3.5780 C.3       1 <0>         0.0254
     31 C26       -19.0382   -6.4983    4.4470 C.3       1 <0>        -0.0463
     32 C27        -5.8860   -0.8294   -2.6438 C.1       1 <0>         0.2610
     33 N6         -5.4034   -0.5921   -3.6444 N.1       1 <0>        -0.3968
     34 N7          0.3650    0.0525   -1.7270 N.4       1 <0>        -0.6357
     35 H1          1.3074    1.3486    0.4321 H         1 <0>         0.0906
     36 H2         -0.2993    1.9905    0.0144 H         1 <0>         0.0871
     37 H3         -0.0849    1.0210    1.4916 H         1 <0>         0.1103
     38 H4          0.3633   -1.4311    1.3224 H         1 <0>         0.1087
     39 H5          0.4682   -2.2085   -0.2754 H         1 <0>         0.0844
     40 H6          1.7556   -1.1036    0.2629 H         1 <0>         0.0897
     41 H7         -1.8192    0.5180    1.6157 H         1 <0>         0.1459
     42 H8         -4.2381    0.0762    1.6835 H         1 <0>         0.1481
     43 H9         -3.9824   -1.8124   -2.1565 H         1 <0>         0.1383
     44 H10        -1.5662   -1.3543   -2.2094 H         1 <0>         0.1265
     45 H11        -8.4884   -1.3713   -2.1718 H         1 <0>         0.1897
     46 H12        -7.7145   -1.9223    3.0179 H         1 <0>         0.4295
     47 H13        -9.5267   -3.3747    0.3647 H         1 <0>         0.1361
     48 H14       -11.8979   -4.0273    0.4547 H         1 <0>         0.1283
     49 H15       -12.3054   -2.0646    4.2198 H         1 <0>         0.1256
     50 H16        -9.9325   -1.4160    4.1449 H         1 <0>         0.1287
     51 H17       -14.2599   -2.7373    2.9511 H         1 <0>         0.0729
     52 H18       -14.0899   -3.5560    1.3797 H         1 <0>         0.0865
     53 H19       -13.2633   -5.5914    2.5297 H         1 <0>         0.0901
     54 H20       -13.4332   -4.7727    4.1011 H         1 <0>         0.0486
     55 H21       -15.6276   -4.3944    5.0254 H         1 <0>         0.0610
     56 H22       -15.9049   -3.3045    3.6451 H         1 <0>         0.1254
     57 H23       -18.0508   -4.0700    4.6387 H         1 <0>         0.1360
     58 H24       -17.8669   -4.6517    2.9666 H         1 <0>         0.1380
     59 H25       -16.9823   -8.0416    3.8997 H         1 <0>         0.1362
     60 H26       -17.2564   -6.9208    2.5444 H         1 <0>         0.1380
     61 H27       -14.8349   -7.2821    2.9050 H         1 <0>         0.1235
     62 H28       -14.9987   -6.7321    4.5904 H         1 <0>         0.0606
     63 H29       -19.4337   -6.4156    3.4346 H         1 <0>         0.1236
     64 H30       -19.1393   -7.5267    4.7936 H         1 <0>         0.1248
     65 H31       -19.5944   -5.8352    5.1096 H         1 <0>         0.1248
     66 H32         1.3570    0.2354   -1.7509 H         1 <0>         0.4390
     67 H33         0.1652   -0.7874   -2.2492 H         1 <0>         0.4328
     68 H34        -0.1303    0.8297   -2.1376 H         1 <0>         0.4372
     69 H35       -17.2540   -6.1934    5.3885 H         1 <0>         0.4224
@<TRIPOS>BOND
     1    1    2 1
     2    1   35 1
     3    1   36 1
     4    1   37 1
     5    2    3 1
     6    2    4 1
     7    2   34 1
     8    3   38 1
     9    3   39 1
    10    3   40 1
    11    4    9 ar
    12    4    5 ar
    13    5    6 ar
    14    5   41 1
    15    6    7 ar
    16    6   42 1
    17    7    8 ar
    18    7   10 1
    19    8    9 ar
    20    8   43 1
    21    9   44 1
    22   10   15 ar
    23   10   11 ar
    24   11   12 ar
    25   11   32 1
    26   12   13 ar
    27   12   45 1
    28   13   14 ar
    29   14   15 ar
    30   14   16 1
    31   16   17 1
    32   16   46 1
    33   17   22 ar
    34   17   18 ar
    35   18   19 ar
    36   18   47 1
    37   19   20 ar
    38   19   48 1
    39   20   21 ar
    40   20   23 1
    41   21   22 ar
    42   21   49 1
    43   22   50 1
    44   23   24 1
    45   23   51 1
    46   23   52 1
    47   24   25 1
    48   24   53 1
    49   24   54 1
    50   25   30 1
    51   25   26 1
    52   26   27 1
    53   26   55 1
    54   26   56 1
    55   27   28 1
    56   27   57 1
    57   27   58 1
    58   28   29 1
    59   28   31 1
    60   28   69 1
    61   29   30 1
    62   29   59 1
    63   29   60 1
    64   30   61 1
    65   30   62 1
    66   31   63 1
    67   31   64 1
    68   31   65 1
    69   32   33 3
    70   34   66 1
    71   34   67 1
    72   34   68 1
@<TRIPOS>MOLECULE
CHEMBL394577__1
   69    72     0     0     0
SMALL
USER_CHARGES

@<TRIPOS>ATOM
      1 C1          0.2358    1.1509    0.4580 C.3       1 <0>        -0.1805
      2 C2         -0.0671   -0.1227   -0.3339 C.3       1 <0>         0.1113
      3 C3          0.6840   -1.3012    0.2887 C.3       1 <0>        -0.1743
      4 C4         -1.5487   -0.3959   -0.2982 C.ar      1 <0>        -0.1108
      5 C5         -2.2977    0.0082    0.7925 C.ar      1 <0>        -0.0923
      6 C6         -3.6546   -0.2391    0.8311 C.ar      1 <0>        -0.0510
      7 C7         -4.2710   -0.8976   -0.2327 C.ar      1 <0>        -0.0426
      8 C8         -3.5107   -1.3021   -1.3298 C.ar      1 <0>        -0.0723
      9 C9         -2.1553   -1.0448   -1.3588 C.ar      1 <0>        -0.1257
     10 C10        -5.7270   -1.1666   -0.1974 C.ar      1 <0>         0.3048
     11 C11        -6.4943   -1.1285   -1.3824 C.ar      1 <0>        -0.1778
     12 C12        -7.8661   -1.3908   -1.2893 C.ar      1 <0>         0.2554
     13 N1         -8.3889   -1.6620   -0.1077 N.ar      1 <0>        -0.5482
     14 C13        -7.6374   -1.6892    0.9854 C.ar      1 <0>         0.5874
     15 N2         -6.3345   -1.4536    0.9492 N.ar      1 <0>        -0.5467
     16 N3         -8.2318   -1.9777    2.1992 N.pl3     1 <0>        -0.6260
     17 C14        -9.5787   -2.3493    2.2472 C.ar      1 <0>         0.1710
     18 C15       -10.1344   -3.0875    1.2100 C.ar      1 <0>        -0.1085
     19 C16       -11.4652   -3.4534    1.2607 C.ar      1 <0>        -0.0863
     20 C17       -12.2443   -3.0853    2.3423 C.ar      1 <0>        -0.1186
     21 C18       -11.6942   -2.3504    3.3765 C.ar      1 <0>        -0.0838
     22 C19       -10.3627   -1.9862    3.3348 C.ar      1 <0>        -0.1378
     23 C20       -13.6963   -3.4855    2.3938 C.3       1 <0>        -0.0992
     24 C21       -13.8268   -4.8432    3.0870 C.3       1 <0>        -0.0055
     25 N4        -15.2422   -5.2333    3.1372 N.4       1 <0>        -0.3873
     26 C22       -15.9803   -4.2889    3.9863 C.3       1 <0>        -0.0068
     27 C23       -17.4582   -4.6840    4.0237 C.3       1 <0>         0.0240
     28 N5        -17.5843   -6.0486    4.5547 N.3       1 <0>        -0.5436
     29 C24       -16.8298   -7.0019    3.7288 C.3       1 <0>         0.0236
     30 C25       -15.3570   -6.5877    3.6938 C.3       1 <0>        -0.0017
     31 C26       -18.9951   -6.4445    4.6595 C.3       1 <0>         0.0189
     32 C27        -5.8860   -0.8294   -2.6438 C.1       1 <0>         0.2584
     33 N6         -5.4034   -0.5921   -3.6444 N.1       1 <0>        -0.3924
     34 N7          0.3650    0.0525   -1.7270 N.4       1 <0>        -0.6358
     35 H1          1.3074    1.3486    0.4321 H         1 <0>         0.0911
     36 H2         -0.2993    1.9905    0.0144 H         1 <0>         0.0872
     37 H3         -0.0849    1.0210    1.4916 H         1 <0>         0.1104
     38 H4          0.3633   -1.4311    1.3224 H         1 <0>         0.1088
     39 H5          0.4682   -2.2085   -0.2754 H         1 <0>         0.0844
     40 H6          1.7556   -1.1036    0.2629 H         1 <0>         0.0902
     41 H7         -1.8192    0.5180    1.6157 H         1 <0>         0.1465
     42 H8         -4.2381    0.0762    1.6835 H         1 <0>         0.1481
     43 H9         -3.9824   -1.8124   -2.1565 H         1 <0>         0.1382
     44 H10        -1.5662   -1.3543   -2.2094 H         1 <0>         0.1270
     45 H11        -8.4884   -1.3713   -2.1718 H         1 <0>         0.1905
     46 H12        -7.7145   -1.9223    3.0179 H         1 <0>         0.4314
     47 H13        -9.5267   -3.3747    0.3647 H         1 <0>         0.1396
     48 H14       -11.8979   -4.0273    0.4547 H         1 <0>         0.1293
     49 H15       -12.3054   -2.0646    4.2198 H         1 <0>         0.1310
     50 H16        -9.9325   -1.4160    4.1449 H         1 <0>         0.1335
     51 H17       -14.2599   -2.7373    2.9511 H         1 <0>         0.0956
     52 H18       -14.0899   -3.5560    1.3797 H         1 <0>         0.0952
     53 H19       -13.2633   -5.5914    2.5297 H         1 <0>         0.1323
     54 H20       -13.4332   -4.7727    4.1011 H         1 <0>         0.1323
     55 H21       -15.5720   -4.3132    4.9967 H         1 <0>         0.1384
     56 H22       -15.8835   -3.2824    3.5795 H         1 <0>         0.1366
     57 H23       -18.0035   -3.9921    4.6657 H         1 <0>         0.1241
     58 H24       -17.8703   -4.6466    3.0153 H         1 <0>         0.0607
     59 H25       -16.9165   -8.0011    4.1556 H         1 <0>         0.1243
     60 H26       -17.2315   -7.0027    2.7155 H         1 <0>         0.0607
     61 H27       -14.7981   -7.2854    3.0701 H         1 <0>         0.1357
     62 H28       -14.9520   -6.6003    4.7057 H         1 <0>         0.1379
     63 H29       -19.4566   -6.4094    3.6727 H         1 <0>         0.0401
     64 H30       -19.0596   -7.4582    5.0550 H         1 <0>         0.0845
     65 H31       -19.5158   -5.7596    5.3287 H         1 <0>         0.0850
     66 H32         1.3570    0.2354   -1.7509 H         1 <0>         0.4394
     67 H33         0.1652   -0.7874   -2.2492 H         1 <0>         0.4328
     68 H34        -0.1303    0.8297   -2.1376 H         1 <0>         0.4373
     69 H35       -15.6280   -5.2191    2.2050 H         1 <0>         0.4204
@<TRIPOS>BOND
     1    1    2 1
     2    1   35 1
     3    1   36 1
     4    1   37 1
     5    2    3 1
     6    2    4 1
     7    2   34 1
     8    3   38 1
     9    3   39 1
    10    3   40 1
    11    4    9 ar
    12    4    5 ar
    13    5    6 ar
    14    5   41 1
    15    6    7 ar
    16    6   42 1
    17    7    8 ar
    18    7   10 1
    19    8    9 ar
    20    8   43 1
    21    9   44 1
    22   10   15 ar
    23   10   11 ar
    24   11   12 ar
    25   11   32 1
    26   12   13 ar
    27   12   45 1
    28   13   14 ar
    29   14   15 ar
    30   14   16 1
    31   16   17 1
    32   16   46 1
    33   17   22 ar
    34   17   18 ar
    35   18   19 ar
    36   18   47 1
    37   19   20 ar
    38   19   48 1
    39   20   21 ar
    40   20   23 1
    41   21   22 ar
    42   21   49 1
    43   22   50 1
    44   23   24 1
    45   23   51 1
    46   23   52 1
    47   24   25 1
    48   24   53 1
    49   24   54 1
    50   25   30 1
    51   25   26 1
    52   25   69 1
    53   26   27 1
    54   26   55 1
    55   26   56 1
    56   27   28 1
    57   27   57 1
    58   27   58 1
    59   28   29 1
    60   28   31 1
    61   29   30 1
    62   29   59 1
    63   29   60 1
    64   30   61 1
    65   30   62 1
    66   31   63 1
    67   31   64 1
    68   31   65 1
    69   32   33 3
    70   34   66 1
    71   34   67 1
    72   34   68 1
@<TRIPOS>MOLECULE
CHEMBL383671
   41    44     0     0     0
SMALL
USER_CHARGES

@<TRIPOS>ATOM
      1 C1          2.3731    0.3617    2.1729 C.3       1 <0>        -0.0969
      2 C2          1.6781   -0.8011    1.5128 C.2       1 <0>         0.0883
      3 C3          2.2963   -1.8667    0.9802 C.2       1 <0>        -0.1878
      4 C4          1.2523   -2.7477    0.4503 C.ar      1 <0>        -0.1348
      5 C5          0.0292   -2.1086    0.7206 C.ar      1 <0>         0.1349
      6 N1          0.3227   -0.9298    1.3728 N.pl3     1 <0>        -0.5859
      7 H1         -0.3334   -0.2866    1.6839 H         1 <0>         0.4210
      8 C6         -1.1613   -2.7129    0.3303 C.ar      1 <0>        -0.1221
      9 C7         -1.1374   -3.9289   -0.3163 C.ar      1 <0>        -0.0616
     10 C8          0.0708   -4.5652   -0.5860 C.ar      1 <0>         0.0164
     11 C9          1.2656   -3.9812   -0.2063 C.ar      1 <0>         0.1636
     12 F1          2.4380   -4.5991   -0.4687 F         1 <0>        -0.1246
     13 O1          0.0764   -5.7660   -1.2250 O.3       1 <0>        -0.2094
     14 C10         0.2000   -6.8844   -0.4742 C.2       1 <0>         0.4796
     15 C11         0.3325   -8.1508   -1.0926 C.2       1 <0>        -0.1055
     16 C12         0.3698   -8.5616   -2.4062 C.2       1 <0>         0.0141
     17 C13         0.5200   -9.9637   -2.3903 C.2       1 <0>        -0.2044
     18 C14         0.5688  -10.3561   -1.0616 C.2       1 <0>         0.1402
     19 N2          0.4563   -9.2687   -0.2865 N.pl3     1 <0>        -0.2357
     20 N3          0.4445   -9.0888    1.1049 N.2       1 <0>        -0.3376
     21 C15         0.3193   -7.8923    1.6077 C.2       1 <0>         0.3411
     22 N4          0.2039   -6.8067    0.8436 N.2       1 <0>        -0.6072
     23 C16         0.6082  -10.8469   -3.5665 C.2       1 <0>         0.5430
     24 O2          0.5517  -10.3761   -4.6853 O.2       1 <0>        -0.4992
     25 O3          0.7514  -12.1765   -3.4014 O.3       1 <0>        -0.3515
     26 C17         0.8302  -12.9725   -4.5855 C.3       1 <0>         0.0358
     27 C18         0.2691   -7.6823   -3.6259 C.3       1 <0>        -0.1001
     28 H2          2.4929    0.1570    3.2368 H         1 <0>         0.0821
     29 H3          3.3531    0.5052    1.7179 H         1 <0>         0.0891
     30 H4          1.7759    1.2641    2.0416 H         1 <0>         0.0721
     31 H5          3.3616   -2.0416    0.9482 H         1 <0>         0.1529
     32 H6         -2.1048   -2.2287    0.5346 H         1 <0>         0.1388
     33 H7         -2.0650   -4.3933   -0.6166 H         1 <0>         0.1455
     34 H8          0.6787  -11.3711   -0.7092 H         1 <0>         0.2002
     35 H9          0.3127   -7.7766    2.6815 H         1 <0>         0.2267
     36 H10        -0.0816  -12.8464   -5.1694 H         1 <0>         0.0623
     37 H11         1.6883  -12.6570   -5.1790 H         1 <0>         0.0624
     38 H12         0.9440  -14.0214   -4.3114 H         1 <0>         0.1039
     39 H13         1.2665   -7.3606   -3.9253 H         1 <0>         0.0828
     40 H14        -0.1918   -8.2418   -4.4400 H         1 <0>         0.0913
     41 H15        -0.3404   -6.8087   -3.3948 H         1 <0>         0.0764
@<TRIPOS>BOND
     1    1    2 1
     2    1   28 1
     3    1   29 1
     4    1   30 1
     5    2    6 1
     6    2    3 2
     7    3    4 1
     8    3   31 1
     9    4   11 ar
    10    4    5 ar
    11    5    6 1
    12    5    8 ar
    13    6    7 1
    14    8    9 ar
    15    8   32 1
    16    9   10 ar
    17    9   33 1
    18   10   11 ar
    19   10   13 1
    20   11   12 1
    21   13   14 1
    22   14   22 2
    23   14   15 1
    24   15   19 1
    25   15   16 2
    26   16   17 1
    27   16   27 1
    28   17   18 2
    29   17   23 1
    30   18   19 1
    31   18   34 1
    32   19   20 1
    33   20   21 2
    34   21   22 1
    35   21   35 1
    36   23   24 2
    37   23   25 1
    38   25   26 1
    39   26   36 1
    40   26   37 1
    41   26   38 1
    42   27   39 1
    43   27   40 1
    44   27   41 1
@<TRIPOS>MOLECULE
CHEMBL204727
   32    35     0     0     0
SMALL
USER_CHARGES

@<TRIPOS>ATOM
      1 C1          0.1910    1.5332    0.0268 C.ar      1 <0>        -0.1500
      2 C2          1.4256    2.1660   -0.0067 C.ar      1 <0>        -0.0475
      3 C3          2.5917    1.4315   -0.0369 C.ar      1 <0>        -0.1660
      4 C4          2.5337    0.0415   -0.0336 C.ar      1 <0>         0.2182
      5 C5          1.2803   -0.5950    0.0008 C.ar      1 <0>        -0.1531
      6 C6          0.1103    0.1689    0.0307 C.ar      1 <0>        -0.0477
      7 C7          1.2262   -2.0626    0.0043 C.2       1 <0>         0.3764
      8 C8          2.4329   -2.7659   -0.0271 C.2       1 <0>        -0.3068
      9 C9          3.6562   -2.0546   -0.0609 C.2       1 <0>         0.5817
     10 N1          3.6902   -0.7118   -0.0631 N.am      1 <0>        -0.6369
     11 O1          4.7043   -2.6757   -0.0881 O.2       1 <0>        -0.5612
     12 C10         2.4322   -4.2374   -0.0246 C.2       1 <0>         0.4175
     13 N2          3.5476   -5.0266    0.0708 N.pl3     1 <0>        -0.5769
     14 C11         3.1169   -6.3400    0.0367 C.ar      1 <0>        -0.0116
     15 C12         3.7581   -7.5687    0.0929 C.ar      1 <0>        -0.0574
     16 C13         2.9832   -8.7162    0.0295 C.ar      1 <0>        -0.1702
     17 C14         1.6079   -8.6039   -0.0867 C.ar      1 <0>         0.1207
     18 N3          1.0175   -7.4288   -0.1385 N.ar      1 <0>        -0.4550
     19 H1          4.4653   -4.7219    0.1477 H         1 <0>         0.4375
     20 C15         1.7151   -6.2954   -0.0816 C.ar      1 <0>         0.2663
     21 N4          1.3603   -4.9942   -0.1080 N.2       1 <0>        -0.5297
     22 N5          0.0236   -2.7247    0.0378 N.pl3     1 <0>        -0.7983
     23 H2         -0.7131    2.1234    0.0544 H         1 <0>         0.1359
     24 H3          1.4733    3.2449   -0.0093 H         1 <0>         0.1378
     25 H4          3.5475    1.9337   -0.0636 H         1 <0>         0.1407
     26 H5         -0.8538   -0.3171    0.0571 H         1 <0>         0.1338
     27 H6          4.8326   -7.6297    0.1833 H         1 <0>         0.1349
     28 H7          3.4483   -9.6901    0.0701 H         1 <0>         0.1444
     29 H8          1.0069   -9.4998   -0.1362 H         1 <0>         0.1653
     30 H9         -0.8020   -2.2258    0.1397 H         1 <0>         0.4028
     31 H10        -0.0002   -3.6912   -0.0404 H         1 <0>         0.4348
     32 H11         4.5484   -0.2603   -0.0871 H         1 <0>         0.4194
@<TRIPOS>BOND
     1    1    6 ar
     2    1    2 ar
     3    1   23 1
     4    2    3 ar
     5    2   24 1
     6    3    4 ar
     7    3   25 1
     8    4   10 1
     9    4    5 ar
    10    5    6 ar
    11    5    7 1
    12    6   26 1
    13    7    8 2
    14    7   22 1
    15    8    9 1
    16    8   12 1
    17    9   10 am
    18    9   11 2
    19   10   32 1
    20   12   21 2
    21   12   13 1
    22   13   14 1
    23   13   19 1
    24   14   15 ar
    25   14   20 ar
    26   15   16 ar
    27   15   27 1
    28   16   17 ar
    29   16   28 1
    30   17   18 ar
    31   17   29 1
    32   18   20 ar
    33   20   21 1
    34   22   30 1
    35   22   31 1
@<TRIPOS>MOLECULE
CHEMBL204727__1
   32    35     0     0     0
SMALL
USER_CHARGES

@<TRIPOS>ATOM
      1 C1          0.1779    1.5231    0.0283 C.ar      1 <0>        -0.1503
      2 C2          1.4097    2.1614   -0.0049 C.ar      1 <0>        -0.0479
      3 C3          2.5790    1.4322   -0.0356 C.ar      1 <0>        -0.1658
      4 C4          2.5273    0.0419   -0.0330 C.ar      1 <0>         0.2182
      5 C5          1.2768   -0.6001    0.0012 C.ar      1 <0>        -0.1528
      6 C6          0.1034    0.1585    0.0315 C.ar      1 <0>        -0.0482
      7 C7          1.2292   -2.0680    0.0038 C.2       1 <0>         0.3734
      8 C8          2.4386   -2.7657   -0.0281 C.2       1 <0>        -0.3012
      9 C9          3.6587   -2.0492   -0.0615 C.2       1 <0>         0.5792
     10 N1          3.6871   -0.7062   -0.0630 N.am      1 <0>        -0.6368
     11 O1          4.7095   -2.6658   -0.0887 O.2       1 <0>        -0.5575
     12 C10         2.4444   -4.2378   -0.0264 C.2       1 <0>         0.4070
     13 N2          1.3771   -4.9983   -0.1159 N.2       1 <0>        -0.5302
     14 C11         1.7470   -6.3012   -0.0844 C.ar      1 <0>         0.0184
     15 C12         1.0402   -7.5070   -0.1439 C.ar      1 <0>        -0.0321
     16 C13         1.7573   -8.6875   -0.0837 C.ar      1 <0>        -0.1794
     17 C14         3.1369   -8.6437    0.0323 C.ar      1 <0>         0.1288
     18 N3          3.7847   -7.4973    0.0868 N.ar      1 <0>        -0.4805
     19 H1          4.4808   -4.7110    0.1358 H         1 <0>         0.4394
     20 C15         3.1491   -6.3386    0.0335 C.ar      1 <0>         0.2380
     21 N4          3.5652   -5.0228    0.0629 N.pl3     1 <0>        -0.5703
     22 N5          0.0292   -2.7357    0.0370 N.pl3     1 <0>        -0.8018
     23 H2         -0.7288    2.1092    0.0563 H         1 <0>         0.1356
     24 H3          1.4525    3.2406   -0.0069 H         1 <0>         0.1377
     25 H4          3.5326    1.9387   -0.0620 H         1 <0>         0.1407
     26 H5         -0.8586   -0.3318    0.0578 H         1 <0>         0.1333
     27 H6         -0.0360   -7.5155   -0.2340 H         1 <0>         0.1403
     28 H7          1.2452   -9.6374   -0.1264 H         1 <0>         0.1443
     29 H8          3.6932   -9.5682    0.0794 H         1 <0>         0.1657
     30 H9         -0.7987   -2.2406    0.1389 H         1 <0>         0.4023
     31 H10         0.0098   -3.7024   -0.0413 H         1 <0>         0.4328
     32 H11         4.5433   -0.2510   -0.0868 H         1 <0>         0.4196
@<TRIPOS>BOND
     1    1    6 ar
     2    1    2 ar
     3    1   23 1
     4    2    3 ar
     5    2   24 1
     6    3    4 ar
     7    3   25 1
     8    4   10 1
     9    4    5 ar
    10    5    6 ar
    11    5    7 1
    12    6   26 1
    13    7    8 2
    14    7   22 1
    15    8    9 1
    16    8   12 1
    17    9   10 am
    18    9   11 2
    19   10   32 1
    20   12   21 1
    21   12   13 2
    22   13   14 1
    23   14   15 ar
    24   14   20 ar
    25   15   16 ar
    26   15   27 1
    27   16   17 ar
    28   16   28 1
    29   17   18 ar
    30   17   29 1
    31   18   20 ar
    32   19   21 1
    33   20   21 1
    34   22   30 1
    35   22   31 1
@<TRIPOS>MOLECULE
CHEMBL204727__2
   31    34     0     0     0
SMALL
USER_CHARGES

@<TRIPOS>ATOM
      1 C1          0.3096    1.6205    0.0145 C.ar      1 <0>        -0.1616
      2 C2          1.5685    2.2034   -0.0205 C.ar      1 <0>        -0.0698
      3 C3          2.7044    1.4229   -0.0473 C.ar      1 <0>        -0.1709
      4 C4          2.5911    0.0363   -0.0388 C.ar      1 <0>         0.2093
      5 C5          1.3133   -0.5495   -0.0029 C.ar      1 <0>        -0.1303
      6 C6          0.1746    0.2605    0.0234 C.ar      1 <0>        -0.0575
      7 C7          1.2006   -2.0138    0.0060 C.2       1 <0>         0.2980
      8 C8          2.3783   -2.7648   -0.0220 C.2       1 <0>        -0.2132
      9 C9          3.6290   -2.1029   -0.0576 C.2       1 <0>         0.5561
     10 N1          3.7166   -0.7625   -0.0649 N.am      1 <0>        -0.6475
     11 O1          4.6516   -2.7655   -0.0819 O.2       1 <0>        -0.5070
     12 C10         2.3189   -4.2350   -0.0141 C.2       1 <0>         0.2787
     13 N2          3.4022   -5.0678    0.0820 N.2       1 <0>        -0.5408
     14 C11         2.9194   -6.3631    0.0537 C.ar      1 <0>        -0.0404
     15 C12         3.5112   -7.6162    0.1131 C.ar      1 <0>        -0.0523
     16 C13         2.6910   -8.7321    0.0556 C.ar      1 <0>        -0.2207
     17 C14         1.3210   -8.5654   -0.0582 C.ar      1 <0>         0.0725
     18 N3          0.7778   -7.3679   -0.1132 N.ar      1 <0>        -0.4776
     19 C15         1.5202   -6.2630   -0.0620 C.ar      1 <0>         0.2008
     20 N4          1.2176   -4.9488   -0.0925 N.2       1 <0>        -0.5903
     21 N5         -0.0274   -2.6272    0.0412 N.pl3     1 <0>        -0.8210
     22 H1         -0.5702    2.2464    0.0394 H         1 <0>         0.1251
     23 H2          1.6592    3.2796   -0.0272 H         1 <0>         0.1267
     24 H3          3.6794    1.8865   -0.0752 H         1 <0>         0.1314
     25 H4         -0.8081   -0.1865    0.0510 H         1 <0>         0.1270
     26 H5          4.5826   -7.7197    0.2015 H         1 <0>         0.1061
     27 H6          3.1170   -9.7236    0.0988 H         1 <0>         0.1115
     28 H7          0.6847   -9.4368   -0.1032 H         1 <0>         0.1331
     29 H8         -0.8324   -2.0957    0.1430 H         1 <0>         0.3848
     30 H9         -0.0899   -3.5922   -0.0357 H         1 <0>         0.4331
     31 H10         4.5921   -0.3457   -0.0899 H         1 <0>         0.4070
@<TRIPOS>BOND
     1    1    6 ar
     2    1    2 ar
     3    1   22 1
     4    2    3 ar
     5    2   23 1
     6    3    4 ar
     7    3   24 1
     8    4   10 1
     9    4    5 ar
    10    5    6 ar
    11    5    7 1
    12    6   25 1
    13    7    8 2
    14    7   21 1
    15    8    9 1
    16    8   12 1
    17    9   10 am
    18    9   11 2
    19   10   31 1
    20   12   20 2
    21   12   13 1
    22   13   14 1
    23   14   15 ar
    24   14   19 ar
    25   15   16 ar
    26   15   26 1
    27   16   17 ar
    28   16   27 1
    29   17   18 ar
    30   17   28 1
    31   18   19 ar
    32   19   20 1
    33   21   29 1
    34   21   30 1
@<TRIPOS>MOLECULE
CHEMBL396265
   50    54     0     0     0
SMALL
USER_CHARGES

@<TRIPOS>ATOM
      1 C1         -0.6883    0.1207    2.0102 C.3       1 <0>         0.0217
      2 O1         -0.2759   -0.5421    0.8133 O.3       1 <0>        -0.3003
      3 C2         -1.1325   -0.5005   -0.2419 C.ar      1 <0>         0.1090
      4 C3         -2.3210    0.1613   -0.1210 C.ar      1 <0>        -0.1356
      5 C4         -3.2041    0.2048   -1.2073 C.ar      1 <0>        -0.1547
      6 C5         -2.8601   -0.4371   -2.4235 C.ar      1 <0>         0.1969
      7 C6         -1.6361   -1.1098   -2.5246 C.ar      1 <0>        -0.1867
      8 C7         -0.7832   -1.1328   -1.4436 C.ar      1 <0>         0.1682
      9 O2          0.4072   -1.7801   -1.5408 O.3       1 <0>        -0.2959
     10 C8          0.7059   -2.4046   -2.7910 C.3       1 <0>         0.0195
     11 N1         -3.7236   -0.3800   -3.4489 N.ar      1 <0>        -0.5257
     12 C9         -4.8624    0.2584   -3.3232 C.ar      1 <0>         0.3384
     13 N2         -5.2240    0.8719   -2.2070 N.ar      1 <0>        -0.5728
     14 C10        -4.4456    0.8761   -1.1353 C.ar      1 <0>         0.3990
     15 O3         -4.8290    1.5066   -0.0013 O.3       1 <0>        -0.2325
     16 C11        -5.9859    2.2205   -0.0278 C.ar      1 <0>         0.0922
     17 C12        -7.2093    1.5578   -0.0044 C.ar      1 <0>        -0.1034
     18 C13        -8.3879    2.2681   -0.0308 C.ar      1 <0>        -0.0601
     19 C14        -8.3575    3.6641   -0.0810 C.ar      1 <0>         0.0876
     20 C15        -7.1213    4.3303   -0.1041 C.ar      1 <0>         0.0567
     21 C16        -5.9411    3.6031   -0.0722 C.ar      1 <0>        -0.0954
     22 N3         -7.4134    5.6833   -0.1526 N.pl3     1 <0>        -0.6145
     23 C17        -8.7744    5.8041   -0.1576 C.2       1 <0>         0.5392
     24 N4         -9.3265    4.6177   -0.1156 N.2       1 <0>        -0.5211
     25 N5         -9.4646    6.9993   -0.1998 N.pl3     1 <0>        -0.6413
     26 C18       -10.8579    7.0069   -0.0780 C.ar      1 <0>         0.1771
     27 C19       -11.5030    5.9780    0.5962 C.ar      1 <0>        -0.1173
     28 C20       -12.8788    5.9883    0.7154 C.ar      1 <0>        -0.0827
     29 C21       -13.6147    7.0222    0.1635 C.ar      1 <0>        -0.0568
     30 C22       -12.9746    8.0486   -0.5087 C.ar      1 <0>        -0.0844
     31 C23       -11.5985    8.0463   -0.6260 C.ar      1 <0>        -0.1429
     32 Cl1       -15.3441    7.0314    0.3142 Cl        1 <0>        -0.0704
     33 H1          0.0845    0.0111    2.7710 H         1 <0>         0.1062
     34 H2         -0.8469    1.1791    1.8033 H         1 <0>         0.0587
     35 H3         -1.6171   -0.3224    2.3694 H         1 <0>         0.0599
     36 H4         -2.5788    0.6485    0.8077 H         1 <0>         0.1535
     37 H5         -1.3612   -1.6036   -3.4449 H         1 <0>         0.1582
     38 H6         -0.0539   -3.1538   -3.0135 H         1 <0>         0.0628
     39 H7          0.7163   -1.6523   -3.5796 H         1 <0>         0.0625
     40 H8          1.6830   -2.8841   -2.7333 H         1 <0>         0.1078
     41 H9         -5.5348    0.2853   -4.1679 H         1 <0>         0.2007
     42 H10        -7.2342    0.4788    0.0345 H         1 <0>         0.1351
     43 H11        -9.3340    1.7477   -0.0131 H         1 <0>         0.1403
     44 H12        -4.9897    4.1140   -0.0858 H         1 <0>         0.1305
     45 H13        -8.9832    7.8336   -0.3139 H         1 <0>         0.4219
     46 H14       -10.9292    5.1706    1.0264 H         1 <0>         0.1578
     47 H15       -13.3809    5.1886    1.2395 H         1 <0>         0.1374
     48 H16       -13.5513    8.8542   -0.9385 H         1 <0>         0.1378
     49 H17       -11.0991    8.8497   -1.1471 H         1 <0>         0.1341
     50 H18        -6.7713    6.4099   -0.1782 H         1 <0>         0.4239
@<TRIPOS>BOND
     1    1    2 1
     2    1   33 1
     3    1   34 1
     4    1   35 1
     5    2    3 1
     6    3    8 ar
     7    3    4 ar
     8    4    5 ar
     9    4   36 1
    10    5   14 ar
    11    5    6 ar
    12    6    7 ar
    13    6   11 ar
    14    7    8 ar
    15    7   37 1
    16    8    9 1
    17    9   10 1
    18   10   38 1
    19   10   39 1
    20   10   40 1
    21   11   12 ar
    22   12   13 ar
    23   12   41 1
    24   13   14 ar
    25   14   15 1
    26   15   16 1
    27   16   21 ar
    28   16   17 ar
    29   17   18 ar
    30   17   42 1
    31   18   19 ar
    32   18   43 1
    33   19   24 1
    34   19   20 ar
    35   20   21 ar
    36   20   22 1
    37   21   44 1
    38   22   23 1
    39   22   50 1
    40   23   24 2
    41   23   25 1
    42   25   26 1
    43   25   45 1
    44   26   31 ar
    45   26   27 ar
    46   27   28 ar
    47   27   46 1
    48   28   29 ar
    49   28   47 1
    50   29   30 ar
    51   29   32 1
    52   30   31 ar
    53   30   48 1
    54   31   49 1
@<TRIPOS>MOLECULE
CHEMBL396265__1
   50    54     0     0     0
SMALL
USER_CHARGES

@<TRIPOS>ATOM
      1 C1          2.7891   -1.1949   -0.2757 C.3       1 <0>         0.0215
      2 O1          3.8718   -1.1057    0.6526 O.3       1 <0>        -0.3006
      3 C2          4.9363   -0.3422    0.2880 C.ar      1 <0>         0.1086
      4 C3          4.9265    0.2978   -0.9184 C.ar      1 <0>        -0.1348
      5 C4          6.0224    1.0845   -1.2949 C.ar      1 <0>        -0.1546
      6 C5          7.1333    1.2117   -0.4236 C.ar      1 <0>         0.1969
      7 C6          7.1215    0.5464    0.8085 C.ar      1 <0>        -0.1869
      8 C7          6.0292   -0.2163    1.1574 C.ar      1 <0>         0.1681
      9 O2          6.0126   -0.8579    2.3546 O.3       1 <0>        -0.2959
     10 C8          7.1553   -0.6906    3.1962 C.3       1 <0>         0.0195
     11 N1          8.1701    1.9716   -0.8081 N.ar      1 <0>        -0.5261
     12 C9          8.1511    2.5827   -1.9685 C.ar      1 <0>         0.3386
     13 N2          7.1355    2.4920   -2.8130 N.ar      1 <0>        -0.5731
     14 C10         6.0627    1.7678   -2.5312 C.ar      1 <0>         0.3995
     15 O3          5.0324    1.6846   -3.4043 O.3       1 <0>        -0.2324
     16 C11         5.0983    2.4262   -4.5420 C.ar      1 <0>         0.0866
     17 C12         5.4472    1.8190   -5.7446 C.ar      1 <0>        -0.1013
     18 C13         5.5171    2.5599   -6.9056 C.ar      1 <0>        -0.0873
     19 C14         5.2387    3.9181   -6.8772 C.ar      1 <0>         0.0536
     20 C15         4.8858    4.5387   -5.6677 C.ar      1 <0>         0.0918
     21 C16         4.8130    3.7772   -4.4986 C.ar      1 <0>        -0.0648
     22 N3          4.6728    5.8529   -5.9394 N.2       1 <0>        -0.5230
     23 C17         4.8684    6.0762   -7.2151 C.2       1 <0>         0.5402
     24 N4          5.2200    4.9148   -7.8412 N.pl3     1 <0>        -0.6149
     25 H1          5.4198    4.8071   -8.7842 H         1 <0>         0.4245
     26 N5          4.7379    7.3027   -7.8345 N.pl3     1 <0>        -0.6418
     27 C18         4.4974    8.4497   -7.0710 C.ar      1 <0>         0.1725
     28 C19         3.8222    8.3512   -5.8612 C.ar      1 <0>        -0.1178
     29 C20         3.5865    9.4853   -5.1091 C.ar      1 <0>        -0.0853
     30 C21         4.0225   10.7189   -5.5598 C.ar      1 <0>        -0.0547
     31 C22         4.6955   10.8199   -6.7648 C.ar      1 <0>        -0.0870
     32 C23         4.9385    9.6884   -7.5184 C.ar      1 <0>        -0.1404
     33 Cl1         3.7240   12.1425   -4.6121 Cl        1 <0>        -0.0706
     34 H2          2.3858   -0.1992   -0.4604 H         1 <0>         0.0596
     35 H3          3.1480   -1.6211   -1.2126 H         1 <0>         0.0594
     36 H4          2.0076   -1.8325    0.1376 H         1 <0>         0.1060
     37 H5          4.0780    0.1975   -1.5790 H         1 <0>         0.1538
     38 H6          7.9609    0.6344    1.4823 H         1 <0>         0.1579
     39 H7          8.0432   -1.0562    2.6803 H         1 <0>         0.0624
     40 H8          7.2813    0.3661    3.4320 H         1 <0>         0.0626
     41 H9          7.0131   -1.2542    4.1183 H         1 <0>         0.1075
     42 H10         9.0017    3.1870   -2.2474 H         1 <0>         0.1998
     43 H11         5.6647    0.7614   -5.7687 H         1 <0>         0.1387
     44 H12         5.7887    2.0831   -7.8357 H         1 <0>         0.1334
     45 H13         4.5383    4.2436   -3.5640 H         1 <0>         0.1345
     46 H14         4.8129    7.3693   -8.7993 H         1 <0>         0.4220
     47 H15         3.4814    7.3887   -5.5092 H         1 <0>         0.1650
     48 H16         3.0612    9.4093   -4.1686 H         1 <0>         0.1370
     49 H17         5.0346   11.7839   -7.1141 H         1 <0>         0.1377
     50 H18         5.4674    9.7672   -8.4567 H         1 <0>         0.1340
@<TRIPOS>BOND
     1    1    2 1
     2    1   34 1
     3    1   35 1
     4    1   36 1
     5    2    3 1
     6    3    8 ar
     7    3    4 ar
     8    4    5 ar
     9    4   37 1
    10    5   14 ar
    11    5    6 ar
    12    6    7 ar
    13    6   11 ar
    14    7    8 ar
    15    7   38 1
    16    8    9 1
    17    9   10 1
    18   10   39 1
    19   10   40 1
    20   10   41 1
    21   11   12 ar
    22   12   13 ar
    23   12   42 1
    24   13   14 ar
    25   14   15 1
    26   15   16 1
    27   16   21 ar
    28   16   17 ar
    29   17   18 ar
    30   17   43 1
    31   18   19 ar
    32   18   44 1
    33   19   24 1
    34   19   20 ar
    35   20   21 ar
    36   20   22 1
    37   21   45 1
    38   22   23 2
    39   23   24 1
    40   23   26 1
    41   24   25 1
    42   26   27 1
    43   26   46 1
    44   27   32 ar
    45   27   28 ar
    46   28   29 ar
    47   28   47 1
    48   29   30 ar
    49   29   48 1
    50   30   31 ar
    51   30   33 1
    52   31   32 ar
    53   31   49 1
    54   32   50 1
@<TRIPOS>MOLECULE
CHEMBL425109
   61    67     0     0     0
SMALL
USER_CHARGES

@<TRIPOS>ATOM
      1 C1          1.1159    1.7058   -2.1810 C.3       1 <0>        -0.1520
      2 C2          1.2371    0.1916   -2.3637 C.3       1 <0>        -0.1485
      3 C3          0.6418   -0.5183   -1.1460 C.3       1 <0>         0.1001
      4 N1          0.7578   -1.9682   -1.3210 N.pl3     1 <0>        -0.4946
      5 C4          1.7664   -2.7437   -0.8041 C.ar      1 <0>         0.1353
      6 C5          2.8760   -2.4022   -0.0323 C.ar      1 <0>        -0.1194
      7 C6          3.7269   -3.4280    0.3418 C.ar      1 <0>        -0.1025
      8 C7          3.5009   -4.7479   -0.0280 C.ar      1 <0>         0.1058
      9 C8          2.4005   -5.1106   -0.7986 C.ar      1 <0>        -0.0532
     10 C9          1.5364   -4.0856   -1.1803 C.ar      1 <0>        -0.0832
     11 C10         0.3041   -4.0940   -1.9735 C.ar      1 <0>        -0.0982
     12 C11        -0.1364   -2.7547   -2.0258 C.ar      1 <0>         0.1892
     13 C12        -1.3113   -2.4352   -2.7025 C.ar      1 <0>        -0.1211
     14 C13        -2.0172   -3.4409   -3.3547 C.ar      1 <0>         0.1289
     15 C14        -1.5963   -4.7804   -3.2899 C.ar      1 <0>        -0.1979
     16 C15        -0.4242   -5.0924   -2.6011 C.ar      1 <0>        -0.0111
     17 C16        -0.2424   -6.5849   -2.7208 C.3       1 <0>         0.1374
     18 N2         -1.3712   -7.0705   -3.5228 N.am      1 <0>        -0.7200
     19 C17        -2.1542   -6.0255   -3.8397 C.2       1 <0>         0.5768
     20 O1         -3.1740   -6.0974   -4.4985 O.2       1 <0>        -0.5351
     21 C18        -3.1953   -3.0374   -4.1539 C.2       1 <0>        -0.2414
     22 C19        -4.1967   -3.7532   -4.7065 C.2       1 <0>         0.1045
     23 N3         -5.0289   -2.8785   -5.3157 N.pl3     1 <0>        -0.3871
     24 N4         -4.5174   -1.5829   -5.1360 N.2       1 <0>        -0.2900
     25 C20        -3.4224   -1.6650   -4.4540 C.2       1 <0>         0.0927
     26 C21        -2.4573   -0.5975   -4.0062 C.3       1 <0>        -0.0319
     27 C22        -1.8095   -1.0162   -2.6888 C.3       1 <0>        -0.0855
     28 C23        -6.2545   -3.2236   -6.0404 C.3       1 <0>         0.1033
     29 N5          4.4024   -5.7371    0.3843 N.am      1 <0>        -0.6617
     30 C24         3.9530   -6.9656    0.7085 C.2       1 <0>         0.6062
     31 O2          2.7766   -7.2415    0.5622 O.2       1 <0>        -0.5020
     32 C25         4.8812   -7.9699    1.2375 C.2       1 <0>        -0.0882
     33 C26         4.5609   -9.2473    1.5986 C.2       1 <0>        -0.1093
     34 C27         5.7470   -9.8495    2.0465 C.2       1 <0>        -0.2255
     35 C28         6.7270   -8.9251    1.9405 C.2       1 <0>         0.0019
     36 O3          6.2025   -7.7957    1.4472 O.3       1 <0>        -0.1657
     37 H1          0.0649    1.9767   -2.0803 H         1 <0>         0.0598
     38 H2          1.6566    2.0079   -1.2840 H         1 <0>         0.0586
     39 H3          1.5400    2.2115   -3.0485 H         1 <0>         0.0636
     40 H4          0.6964   -0.1106   -3.2606 H         1 <0>         0.0749
     41 H5          2.2881   -0.0793   -2.4644 H         1 <0>         0.0722
     42 H6          1.1824   -0.2161   -0.2491 H         1 <0>         0.0929
     43 H7         -0.4092   -0.2474   -1.0453 H         1 <0>         0.0991
     44 H8          3.0641   -1.3799    0.2611 H         1 <0>         0.1374
     45 H9          4.5949   -3.1945    0.9405 H         1 <0>         0.1302
     46 H10         2.2243   -6.1364   -1.0867 H         1 <0>         0.1489
     47 H11         0.6985   -6.8089   -3.2235 H         1 <0>         0.1008
     48 H12        -0.2590   -7.0451   -1.7328 H         1 <0>         0.1045
     49 H13        -1.5320   -7.9940   -3.7722 H         1 <0>         0.4267
     50 H14        -4.3120   -4.8264   -4.6696 H         1 <0>         0.2199
     51 H15        -1.6856   -0.4644   -4.7643 H         1 <0>         0.0874
     52 H16        -2.9936    0.3409   -3.8651 H         1 <0>         0.0895
     53 H17        -2.5417   -0.9093   -1.8884 H         1 <0>         0.0787
     54 H18        -0.9701   -0.3518   -2.4840 H         1 <0>         0.0941
     55 H19        -7.0984   -3.2173   -5.3506 H         1 <0>         0.0745
     56 H20        -6.4265   -2.4939   -6.8316 H         1 <0>         0.0885
     57 H21        -6.1504   -4.2165   -6.4781 H         1 <0>         0.0899
     58 H22         5.3504   -5.5380    0.4365 H         1 <0>         0.4155
     59 H23         3.5840   -9.7053    1.5497 H         1 <0>         0.1626
     60 H24         5.8560  -10.8613    2.4082 H         1 <0>         0.1597
     61 H25         7.7633   -9.0739    2.2055 H         1 <0>         0.2133
@<TRIPOS>BOND
     1    1    2 1
     2    1   37 1
     3    1   38 1
     4    1   39 1
     5    2    3 1
     6    2   40 1
     7    2   41 1
     8    3    4 1
     9    3   42 1
    10    3   43 1
    11    4   12 1
    12    4    5 1
    13    5   10 ar
    14    5    6 ar
    15    6    7 ar
    16    6   44 1
    17    7    8 ar
    18    7   45 1
    19    8    9 ar
    20    8   29 1
    21    9   10 ar
    22    9   46 1
    23   10   11 1
    24   11   16 ar
    25   11   12 ar
    26   12   13 ar
    27   13   27 1
    28   13   14 ar
    29   14   15 ar
    30   14   21 1
    31   15   19 1
    32   15   16 ar
    33   16   17 1
    34   17   18 1
    35   17   47 1
    36   17   48 1
    37   18   19 am
    38   18   49 1
    39   19   20 2
    40   21   25 1
    41   21   22 2
    42   22   23 1
    43   22   50 1
    44   23   24 1
    45   23   28 1
    46   24   25 2
    47   25   26 1
    48   26   27 1
    49   26   51 1
    50   26   52 1
    51   27   53 1
    52   27   54 1
    53   28   55 1
    54   28   56 1
    55   28   57 1
    56   29   30 am
    57   29   58 1
    58   30   31 2
    59   30   32 1
    60   32   36 1
    61   32   33 2
    62   33   34 1
    63   33   59 1
    64   34   35 2
    65   34   60 1
    66   35   36 1
    67   35   61 1
@<TRIPOS>MOLECULE
CHEMBL473287
   36    38     0     0     0
SMALL
USER_CHARGES

@<TRIPOS>ATOM
      1 C1          0.0700    1.2314    0.5929 C.ar      1 <0>        -0.0931
      2 C2          1.2558    1.9400    0.5947 C.ar      1 <0>        -0.1257
      3 C3          2.3817    1.4090   -0.0210 C.ar      1 <0>         0.1474
      4 C4          2.3117    0.1661   -0.6371 C.ar      1 <0>        -0.0931
      5 C5          1.1227   -0.5379   -0.6356 C.ar      1 <0>        -0.0733
      6 C6          0.0028   -0.0054   -0.0210 C.ar      1 <0>        -0.1032
      7 Br1         1.0256   -2.2301   -1.4739 Br        1 <0>        -0.0422
      8 N1          3.5833    2.1244   -0.0212 N.am      1 <0>        -0.6529
      9 C7          4.7578    1.4690    0.0659 C.2       1 <0>         0.6031
     10 O1          4.7775    0.2530    0.0598 O.2       1 <0>        -0.5148
     11 C8          6.0184    2.2260    0.1685 C.2       1 <0>        -0.0169
     12 C9          7.2574    1.5848    0.2552 C.2       1 <0>         0.1837
     13 C10         8.3142    2.4357    0.3429 C.2       1 <0>        -0.3832
     14 S1          7.5960    3.9493    0.3039 S.3       1 <0>         0.4838
     15 N2          6.0381    3.5448    0.1778 N.2       1 <0>        -0.4587
     16 N3          7.3977    0.1894    0.2524 N.pl3     1 <0>        -0.7149
     17 C11         8.7298   -0.4130    0.3464 C.3       1 <0>         0.1680
     18 C12         8.6049   -1.9147    0.3228 C.ar      1 <0>        -0.0639
     19 C13         8.4514   -2.6327    1.4989 C.ar      1 <0>        -0.1526
     20 C14         8.3400   -4.0089    1.4381 C.ar      1 <0>         0.0996
     21 N4          8.3788   -4.6383    0.2799 N.ar      1 <0>        -0.4781
     22 C15         8.5236   -3.9880   -0.8581 C.ar      1 <0>         0.0996
     23 C16         8.6350   -2.6106   -0.8760 C.ar      1 <0>        -0.1526
     24 H1         -0.8044    1.6422    1.0756 H         1 <0>         0.1390
     25 H2          1.3072    2.9064    1.0742 H         1 <0>         0.1348
     26 H3          3.1854   -0.2494   -1.1171 H         1 <0>         0.1497
     27 H4         -0.9254   -0.5575   -0.0206 H         1 <0>         0.1360
     28 H5          3.5715    3.0923   -0.0839 H         1 <0>         0.4231
     29 H6          9.3641    2.1942    0.4196 H         1 <0>         0.1937
     30 H7          6.6128   -0.3769    0.1882 H         1 <0>         0.4188
     31 H8          9.3370   -0.0856   -0.4975 H         1 <0>         0.0741
     32 H9          9.2041   -0.1025    1.2774 H         1 <0>         0.0740
     33 H10         8.4195   -2.1230    2.4506 H         1 <0>         0.1365
     34 H11         8.2201   -4.5755    2.3497 H         1 <0>         0.1588
     35 H12         8.5513   -4.5379   -1.7872 H         1 <0>         0.1588
     36 H13         8.7484   -2.0833   -1.8117 H         1 <0>         0.1366
@<TRIPOS>BOND
     1    1    6 ar
     2    1    2 ar
     3    1   24 1
     4    2    3 ar
     5    2   25 1
     6    3    4 ar
     7    3    8 1
     8    4    5 ar
     9    4   26 1
    10    5    6 ar
    11    5    7 1
    12    6   27 1
    13    8    9 am
    14    8   28 1
    15    9   10 2
    16    9   11 1
    17   11   15 2
    18   11   12 1
    19   12   13 2
    20   12   16 1
    21   13   14 1
    22   13   29 1
    23   14   15 1
    24   16   17 1
    25   16   30 1
    26   17   18 1
    27   17   31 1
    28   17   32 1
    29   18   23 ar
    30   18   19 ar
    31   19   20 ar
    32   19   33 1
    33   20   21 ar
    34   20   34 1
    35   21   22 ar
    36   22   23 ar
    37   22   35 1
    38   23   36 1
@<TRIPOS>MOLECULE
CHEMBL187396
   79    82     0     0     0
SMALL
USER_CHARGES

@<TRIPOS>ATOM
      1 C1         -0.0187    1.5258    0.0104 C.3       1 <0>        -0.1656
      2 C2          0.0021   -0.0041    0.0020 C.3       1 <0>         0.1879
      3 C3          0.7421   -0.5109    1.2415 C.3       1 <0>        -0.1656
      4 C4         -1.4333   -0.5336    0.0129 C.3       1 <0>        -0.1558
      5 N1          0.6878   -0.4765   -1.2033 N.am      1 <0>        -0.7366
      6 C5          1.9715   -0.1323   -1.4270 C.2       1 <0>         0.6936
      7 O1          2.5604    0.5703   -0.6286 O.2       1 <0>        -0.5134
      8 N2          2.6023   -0.5669   -2.5359 N.am      1 <0>        -0.6664
      9 C6          3.9247   -0.2123   -2.7663 C.ar      1 <0>         0.4500
     10 C7          4.5693   -0.6712   -3.9356 C.ar      1 <0>        -0.1612
     11 C8          5.8881   -0.3212   -4.1717 C.ar      1 <0>         0.0290
     12 C9          6.5368    0.4880   -3.2221 C.ar      1 <0>        -0.2401
     13 C10         7.8708    0.8895   -3.3824 C.ar      1 <0>         0.2196
     14 N3          8.4455    1.6459   -2.4759 N.ar      1 <0>        -0.5397
     15 C11         7.8088    2.0618   -1.3834 C.ar      1 <0>         0.4094
     16 C12         6.4944    1.7182   -1.1375 C.ar      1 <0>        -0.2403
     17 C13         5.8226    0.9111   -2.0693 C.ar      1 <0>         0.2386
     18 N4          4.5491    0.5491   -1.8926 N.ar      1 <0>        -0.4808
     19 N5          8.4837    2.8609   -0.4679 N.pl3     1 <0>        -0.7213
     20 C14         7.7998    3.3283    0.7404 C.3       1 <0>         0.1268
     21 C15         8.7592    4.1828    1.5712 C.3       1 <0>        -0.1288
     22 C16         8.0449    4.6711    2.8331 C.3       1 <0>        -0.1131
     23 C17         9.0043    5.5256    3.6639 C.3       1 <0>         0.0559
     24 N6          8.3185    5.9943    4.8755 N.3       1 <0>        -0.5380
     25 C18         7.2326    6.9264    4.5390 C.3       1 <0>         0.0138
     26 C19         6.5084    7.3424    5.8221 C.3       1 <0>         0.0623
     27 O2          7.4517    7.9157    6.7314 O.3       1 <0>        -0.3859
     28 C20         8.5228    7.0349    7.0813 C.3       1 <0>         0.0628
     29 C21         9.2673    6.6158    5.8109 C.3       1 <0>         0.0170
     30 C22         3.8387   -1.5231   -4.9046 C.ar      1 <0>         0.0421
     31 C23         3.1397   -2.6438   -4.4607 C.ar      1 <0>        -0.1989
     32 C24         2.4582   -3.4378   -5.3688 C.ar      1 <0>         0.1767
     33 C25         2.4715   -3.1183   -6.7187 C.ar      1 <0>        -0.2977
     34 C26         3.1664   -2.0032   -7.1640 C.ar      1 <0>         0.1765
     35 C27         3.8449   -1.2016   -6.2604 C.ar      1 <0>        -0.1741
     36 O3          3.1769   -1.6937   -8.4872 O.3       1 <0>        -0.3104
     37 C28         2.4514   -2.5601   -9.3619 C.3       1 <0>         0.0252
     38 O4          1.7762   -4.5310   -4.9368 O.3       1 <0>        -0.3111
     39 C29         1.0960   -5.3046   -5.9272 C.3       1 <0>         0.0251
     40 H1          1.0039    1.9031    0.0027 H         1 <0>         0.0813
     41 H2         -0.5459    1.8868   -0.8726 H         1 <0>         0.0523
     42 H3         -0.5289    1.8773    0.9072 H         1 <0>         0.0634
     43 H4          0.2319   -0.1594    2.1383 H         1 <0>         0.0633
     44 H5          0.7568   -1.6008    1.2356 H         1 <0>         0.0528
     45 H6          1.7647   -0.1336    1.2338 H         1 <0>         0.0814
     46 H7         -1.9605   -0.1726   -0.8702 H         1 <0>         0.0619
     47 H8         -1.4185   -1.6235    0.0069 H         1 <0>         0.0624
     48 H9         -1.9435   -0.1821    0.9097 H         1 <0>         0.0762
     49 H10         0.2179   -1.0371   -1.8404 H         1 <0>         0.3941
     50 H11         2.1325   -1.1275   -3.1729 H         1 <0>         0.4148
     51 H12         6.4032   -0.6599   -5.0584 H         1 <0>         0.1507
     52 H13         8.4269    0.5757   -4.2534 H         1 <0>         0.1686
     53 H14         5.9925    2.0642   -0.2459 H         1 <0>         0.1418
     54 H15         9.4075    3.1089   -0.6290 H         1 <0>         0.4054
     55 H16         6.9323    3.9254    0.4590 H         1 <0>         0.0665
     56 H17         7.4748    2.4704    1.3290 H         1 <0>         0.0680
     57 H18         9.6266    3.5858    1.8527 H         1 <0>         0.0724
     58 H19         9.0841    5.0408    0.9827 H         1 <0>         0.0698
     59 H20         7.1775    5.2681    2.5517 H         1 <0>         0.0671
     60 H21         7.7200    3.8131    3.4217 H         1 <0>         0.0770
     61 H22         9.8718    4.9285    3.9454 H         1 <0>         0.0773
     62 H23         9.3293    6.3835    3.0754 H         1 <0>         0.0361
     63 H24         7.6481    7.8091    4.0530 H         1 <0>         0.0430
     64 H25         6.5285    6.4371    3.8660 H         1 <0>         0.0899
     65 H26         5.7394    8.0772    5.5841 H         1 <0>         0.0987
     66 H27         6.0473    6.4672    6.2799 H         1 <0>         0.0608
     67 H28         9.2105    7.5474    7.7539 H         1 <0>         0.0987
     68 H29         8.1202    6.1508    7.5756 H         1 <0>         0.0606
     69 H30        10.0485    5.8998    6.0663 H         1 <0>         0.0868
     70 H31         9.7154    7.4936    5.3452 H         1 <0>         0.0431
     71 H32         3.1296   -2.8935   -3.4101 H         1 <0>         0.1349
     72 H33         1.9400   -3.7392   -7.4246 H         1 <0>         0.1372
     73 H34         4.3820   -0.3311   -6.6071 H         1 <0>         0.1379
     74 H35         2.5417   -2.2003  -10.3868 H         1 <0>         0.1045
     75 H36         2.8585   -3.5690   -9.2938 H         1 <0>         0.0570
     76 H37         1.4007   -2.5720   -9.0723 H         1 <0>         0.0566
     77 H38         0.3590   -4.6805   -6.4327 H         1 <0>         0.0570
     78 H39         1.8166   -5.6777   -6.6549 H         1 <0>         0.0571
     79 H40         0.5935   -6.1456   -5.4494 H         1 <0>         0.1044
@<TRIPOS>BOND
     1    1    2 1
     2    1   40 1
     3    1   41 1
     4    1   42 1
     5    2    3 1
     6    2    4 1
     7    2    5 1
     8    3   43 1
     9    3   44 1
    10    3   45 1
    11    4   46 1
    12    4   47 1
    13    4   48 1
    14    5    6 am
    15    5   49 1
    16    6    7 2
    17    6    8 am
    18    8    9 1
    19    8   50 1
    20    9   18 ar
    21    9   10 ar
    22   10   11 ar
    23   10   30 1
    24   11   12 ar
    25   11   51 1
    26   12   17 ar
    27   12   13 ar
    28   13   14 ar
    29   13   52 1
    30   14   15 ar
    31   15   16 ar
    32   15   19 1
    33   16   17 ar
    34   16   53 1
    35   17   18 ar
    36   19   20 1
    37   19   54 1
    38   20   21 1
    39   20   55 1
    40   20   56 1
    41   21   22 1
    42   21   57 1
    43   21   58 1
    44   22   23 1
    45   22   59 1
    46   22   60 1
    47   23   24 1
    48   23   61 1
    49   23   62 1
    50   24   29 1
    51   24   25 1
    52   25   26 1
    53   25   63 1
    54   25   64 1
    55   26   27 1
    56   26   65 1
    57   26   66 1
    58   27   28 1
    59   28   29 1
    60   28   67 1
    61   28   68 1
    62   29   69 1
    63   29   70 1
    64   30   35 ar
    65   30   31 ar
    66   31   32 ar
    67   31   71 1
    68   32   33 ar
    69   32   38 1
    70   33   34 ar
    71   33   72 1
    72   34   35 ar
    73   34   36 1
    74   35   73 1
    75   36   37 1
    76   37   74 1
    77   37   75 1
    78   37   76 1
    79   38   39 1
    80   39   77 1
    81   39   78 1
    82   39   79 1
@<TRIPOS>MOLECULE
CHEMBL187396__1
   80    83     0     0     0
SMALL
USER_CHARGES

@<TRIPOS>ATOM
      1 C1         -0.0187    1.5258    0.0104 C.3       1 <0>        -0.1648
      2 C2          0.0021   -0.0041    0.0020 C.3       1 <0>         0.1877
      3 C3          0.7421   -0.5109    1.2415 C.3       1 <0>        -0.1648
      4 C4         -1.4333   -0.5336    0.0129 C.3       1 <0>        -0.1575
      5 N1          0.6878   -0.4765   -1.2033 N.am      1 <0>        -0.7354
      6 C5          1.9715   -0.1323   -1.4270 C.2       1 <0>         0.6964
      7 O1          2.5604    0.5703   -0.6286 O.2       1 <0>        -0.5191
      8 N2          2.6023   -0.5669   -2.5359 N.am      1 <0>        -0.6655
      9 C6          3.9247   -0.2123   -2.7663 C.ar      1 <0>         0.4538
     10 C7          4.5693   -0.6712   -3.9356 C.ar      1 <0>        -0.1520
     11 C8          5.8881   -0.3212   -4.1717 C.ar      1 <0>         0.0269
     12 C9          6.5368    0.4880   -3.2221 C.ar      1 <0>        -0.2358
     13 C10         7.8708    0.8895   -3.3824 C.ar      1 <0>         0.2236
     14 N3          8.4455    1.6459   -2.4759 N.ar      1 <0>        -0.5406
     15 C11         7.8088    2.0618   -1.3834 C.ar      1 <0>         0.4043
     16 C12         6.4944    1.7182   -1.1375 C.ar      1 <0>        -0.2382
     17 C13         5.8226    0.9111   -2.0693 C.ar      1 <0>         0.2369
     18 N4          4.5491    0.5491   -1.8926 N.ar      1 <0>        -0.4835
     19 N5          8.4837    2.8609   -0.4679 N.pl3     1 <0>        -0.7278
     20 C14         7.7998    3.3283    0.7404 C.3       1 <0>         0.1287
     21 C15         8.7592    4.1828    1.5712 C.3       1 <0>        -0.1287
     22 C16         8.0449    4.6711    2.8331 C.3       1 <0>        -0.1464
     23 C17         9.0043    5.5256    3.6639 C.3       1 <0>        -0.0086
     24 N6          8.3185    5.9943    4.8755 N.4       1 <0>        -0.3859
     25 C18         7.2218    6.8971    4.4995 C.3       1 <0>        -0.0488
     26 C19         6.5088    7.3839    5.7635 C.3       1 <0>         0.0358
     27 O2          7.4543    8.0334    6.6178 O.3       1 <0>        -0.3567
     28 C20         8.5554    7.2009    6.9928 C.3       1 <0>         0.0354
     29 C21         9.2722    6.7138    5.7311 C.3       1 <0>        -0.0434
     30 C22         3.8387   -1.5231   -4.9046 C.ar      1 <0>         0.0354
     31 C23         3.1397   -2.6438   -4.4607 C.ar      1 <0>        -0.1996
     32 C24         2.4582   -3.4378   -5.3688 C.ar      1 <0>         0.1784
     33 C25         2.4715   -3.1183   -6.7187 C.ar      1 <0>        -0.2956
     34 C26         3.1664   -2.0032   -7.1640 C.ar      1 <0>         0.1785
     35 C27         3.8449   -1.2016   -6.2604 C.ar      1 <0>        -0.1736
     36 O3          3.1769   -1.6937   -8.4872 O.3       1 <0>        -0.3099
     37 C28         2.4514   -2.5601   -9.3619 C.3       1 <0>         0.0243
     38 O4          1.7762   -4.5310   -4.9368 O.3       1 <0>        -0.3110
     39 C29         1.0960   -5.3046   -5.9272 C.3       1 <0>         0.0242
     40 H1          1.0039    1.9031    0.0027 H         1 <0>         0.0792
     41 H2         -0.5459    1.8868   -0.8726 H         1 <0>         0.0535
     42 H3         -0.5289    1.8773    0.9072 H         1 <0>         0.0631
     43 H4          0.2319   -0.1594    2.1383 H         1 <0>         0.0630
     44 H5          0.7568   -1.6008    1.2356 H         1 <0>         0.0539
     45 H6          1.7647   -0.1336    1.2338 H         1 <0>         0.0792
     46 H7         -1.9605   -0.1726   -0.8702 H         1 <0>         0.0633
     47 H8         -1.4185   -1.6235    0.0069 H         1 <0>         0.0637
     48 H9         -1.9435   -0.1821    0.9097 H         1 <0>         0.0768
     49 H10         0.2179   -1.0371   -1.8404 H         1 <0>         0.3961
     50 H11         2.1325   -1.1275   -3.1729 H         1 <0>         0.4170
     51 H12         6.4032   -0.6599   -5.0584 H         1 <0>         0.1534
     52 H13         8.4269    0.5757   -4.2534 H         1 <0>         0.1712
     53 H14         5.9925    2.0642   -0.2459 H         1 <0>         0.1383
     54 H15         9.4075    3.1089   -0.6290 H         1 <0>         0.4062
     55 H16         6.9323    3.9254    0.4590 H         1 <0>         0.0681
     56 H17         7.4748    2.4704    1.3290 H         1 <0>         0.0684
     57 H18         9.6266    3.5858    1.8527 H         1 <0>         0.0835
     58 H19         9.0841    5.0408    0.9827 H         1 <0>         0.0832
     59 H20         7.1775    5.2681    2.5517 H         1 <0>         0.0917
     60 H21         7.7200    3.8131    3.4217 H         1 <0>         0.0925
     61 H22         9.8718    4.9285    3.9454 H         1 <0>         0.1343
     62 H23         9.3293    6.3835    3.0754 H         1 <0>         0.1322
     63 H24         7.6246    7.7523    3.9570 H         1 <0>         0.1395
     64 H25         6.5137    6.3643    3.8649 H         1 <0>         0.1442
     65 H26         5.7224    8.0872    5.4898 H         1 <0>         0.1422
     66 H27         6.0713    6.5327    6.2854 H         1 <0>         0.0816
     67 H28         9.2502    7.7719    7.6087 H         1 <0>         0.1422
     68 H29         8.1880    6.3435    7.5567 H         1 <0>         0.0814
     69 H30        10.0862    6.0449    6.0106 H         1 <0>         0.1428
     70 H31         9.6743    7.5691    5.1881 H         1 <0>         0.1390
     71 H32         3.1296   -2.8935   -3.4101 H         1 <0>         0.1343
     72 H33         1.9400   -3.7392   -7.4246 H         1 <0>         0.1389
     73 H34         4.3820   -0.3311   -6.6071 H         1 <0>         0.1379
     74 H35         2.8585   -3.5690   -9.2938 H         1 <0>         0.0580
     75 H36         1.4007   -2.5720   -9.0723 H         1 <0>         0.0575
     76 H37         2.5417   -2.2003  -10.3868 H         1 <0>         0.1060
     77 H38         1.8166   -5.6777   -6.6549 H         1 <0>         0.0582
     78 H39         0.5935   -6.1456   -5.4494 H         1 <0>         0.1058
     79 H40         0.3590   -4.6805   -6.4327 H         1 <0>         0.0580
     80 H41         7.9458    5.2031    5.3786 H         1 <0>         0.4234
@<TRIPOS>BOND
     1    1    2 1
     2    1   40 1
     3    1   41 1
     4    1   42 1
     5    2    3 1
     6    2    4 1
     7    2    5 1
     8    3   43 1
     9    3   44 1
    10    3   45 1
    11    4   46 1
    12    4   47 1
    13    4   48 1
    14    5    6 am
    15    5   49 1
    16    6    7 2
    17    6    8 am
    18    8    9 1
    19    8   50 1
    20    9   18 ar
    21    9   10 ar
    22   10   11 ar
    23   10   30 1
    24   11   12 ar
    25   11   51 1
    26   12   17 ar
    27   12   13 ar
    28   13   14 ar
    29   13   52 1
    30   14   15 ar
    31   15   16 ar
    32   15   19 1
    33   16   17 ar
    34   16   53 1
    35   17   18 ar
    36   19   20 1
    37   19   54 1
    38   20   21 1
    39   20   55 1
    40   20   56 1
    41   21   22 1
    42   21   57 1
    43   21   58 1
    44   22   23 1
    45   22   59 1
    46   22   60 1
    47   23   24 1
    48   23   61 1
    49   23   62 1
    50   24   29 1
    51   24   25 1
    52   24   80 1
    53   25   26 1
    54   25   63 1
    55   25   64 1
    56   26   27 1
    57   26   65 1
    58   26   66 1
    59   27   28 1
    60   28   29 1
    61   28   67 1
    62   28   68 1
    63   29   69 1
    64   29   70 1
    65   30   35 ar
    66   30   31 ar
    67   31   32 ar
    68   31   71 1
    69   32   33 ar
    70   32   38 1
    71   33   34 ar
    72   33   72 1
    73   34   35 ar
    74   34   36 1
    75   35   73 1
    76   36   37 1
    77   37   74 1
    78   37   75 1
    79   37   76 1
    80   38   39 1
    81   39   77 1
    82   39   78 1
    83   39   79 1
@<TRIPOS>MOLECULE
CHEMBL462175
   56    60     0     0     0
SMALL
USER_CHARGES

@<TRIPOS>ATOM
      1 C1         -0.1964    1.3726    0.0566 C.3       1 <0>         0.1046
      2 N1         -0.0903   -0.0881    0.0235 N.pl3     1 <0>        -0.3888
      3 C2         -0.0345   -0.8550   -1.1116 C.ar      1 <0>         0.1551
      4 C3         -0.0563   -0.5614   -2.4725 C.ar      1 <0>        -0.1192
      5 C4          0.0184   -1.5868   -3.3947 C.ar      1 <0>         0.0950
      6 C5          0.1154   -2.9128   -2.9734 C.ar      1 <0>        -0.1808
      7 C6          0.1382   -3.2182   -1.6446 C.ar      1 <0>        -0.0073
      8 C7          0.0637   -2.1957   -0.6935 C.ar      1 <0>        -0.1681
      9 C8          0.0622   -2.1701    0.7702 C.2       1 <0>         0.3197
     10 N2         -0.0238   -0.9212    1.1448 N.2       1 <0>        -0.2193
     11 N3          0.1431   -3.2813    1.6150 N.am      1 <0>        -0.6176
     12 C9          0.1313   -3.1135    2.9523 C.2       1 <0>         0.5734
     13 O1          0.0504   -1.9962    3.4238 O.2       1 <0>        -0.4679
     14 C10         0.2170   -4.2907    3.8473 C.ar      1 <0>         0.0886
     15 C11         0.1985   -4.1109    5.2283 C.ar      1 <0>        -0.0976
     16 C12         0.2796   -5.2232    6.0534 C.ar      1 <0>         0.0007
     17 C13         0.3762   -6.4768    5.4659 C.ar      1 <0>        -0.1322
     18 C14         0.3888   -6.5799    4.0849 C.ar      1 <0>         0.1191
     19 N4          0.3052   -5.5085    3.3262 N.ar      1 <0>        -0.4590
     20 Cl1         0.2611   -5.0510    7.7807 Cl        1 <0>        -0.0282
     21 O2         -0.0033   -1.3015   -4.7231 O.3       1 <0>        -0.2107
     22 C15        -1.0867   -1.6900   -5.4400 C.ar      1 <0>         0.2836
     23 C16        -2.1929   -2.2425   -4.8180 C.ar      1 <0>        -0.2609
     24 C17        -3.2882   -2.6306   -5.5785 C.ar      1 <0>         0.2249
     25 N5         -3.3095   -2.4897   -6.8834 N.ar      1 <0>        -0.4810
     26 C18        -2.2750   -1.9639   -7.5494 C.ar      1 <0>         0.1826
     27 C19        -1.1233   -1.5379   -6.8439 C.ar      1 <0>        -0.0890
     28 C20        -0.0423   -0.9812   -7.5445 C.ar      1 <0>        -0.1373
     29 C21        -0.1125   -0.8495   -8.9010 C.ar      1 <0>         0.1353
     30 C22        -1.2542   -1.2649   -9.6019 C.ar      1 <0>         0.2168
     31 C23        -2.3146   -1.8208   -8.9467 C.ar      1 <0>        -0.2363
     32 O3         -1.3003   -1.1229  -10.9525 O.3       1 <0>        -0.2774
     33 C24        -2.4893   -1.5640  -11.6110 C.3       1 <0>         0.0116
     34 O4          0.9348   -0.3098   -9.5799 O.3       1 <0>        -0.2864
     35 C25         2.0684    0.0943   -8.8093 C.3       1 <0>         0.0147
     36 H1          0.8022    1.8095    0.0598 H         1 <0>         0.0799
     37 H2         -0.7409    1.7173   -0.8225 H         1 <0>         0.0887
     38 H3         -0.7294    1.6779    0.9570 H         1 <0>         0.0983
     39 H4         -0.1317    0.4632   -2.8053 H         1 <0>         0.1463
     40 H5          0.1727   -3.7045   -3.7058 H         1 <0>         0.1414
     41 H6          0.2139   -4.2478   -1.3273 H         1 <0>         0.1454
     42 H7          0.2077   -4.1730    1.2387 H         1 <0>         0.4341
     43 H8          0.1227   -3.1198    5.6508 H         1 <0>         0.1623
     44 H9          0.4413   -7.3631    6.0796 H         1 <0>         0.1582
     45 H10         0.4639   -7.5539    3.6243 H         1 <0>         0.1796
     46 H11        -2.2041   -2.3715   -3.7458 H         1 <0>         0.1870
     47 H12        -4.1459   -3.0605   -5.0827 H         1 <0>         0.2126
     48 H13         0.8406   -0.6584   -7.0129 H         1 <0>         0.1730
     49 H14        -3.1872   -2.1370   -9.4990 H         1 <0>         0.1714
     50 H15        -2.6353   -2.6278  -11.4232 H         1 <0>         0.0696
     51 H16        -3.3445   -1.0069  -11.2285 H         1 <0>         0.0694
     52 H17        -2.3951   -1.3940  -12.6835 H         1 <0>         0.1215
     53 H18         1.7654    0.8525   -8.0873 H         1 <0>         0.0672
     54 H19         2.4750   -0.7683   -8.2814 H         1 <0>         0.0675
     55 H20         2.8295    0.5068   -9.4716 H         1 <0>         0.1187
     56 H21        -4.0945   -2.7742   -7.3770 H         1 <0>         0.4476
@<TRIPOS>BOND
     1    1    2 1
     2    1   36 1
     3    1   37 1
     4    1   38 1
     5    2   10 1
     6    2    3 1
     7    3    8 ar
     8    3    4 ar
     9    4    5 ar
    10    4   39 1
    11    5    6 ar
    12    5   21 1
    13    6    7 ar
    14    6   40 1
    15    7    8 ar
    16    7   41 1
    17    8    9 1
    18    9   10 2
    19    9   11 1
    20   11   12 am
    21   11   42 1
    22   12   13 2
    23   12   14 1
    24   14   19 ar
    25   14   15 ar
    26   15   16 ar
    27   15   43 1
    28   16   17 ar
    29   16   20 1
    30   17   18 ar
    31   17   44 1
    32   18   19 ar
    33   18   45 1
    34   21   22 1
    35   22   27 ar
    36   22   23 ar
    37   23   24 ar
    38   23   46 1
    39   24   25 ar
    40   24   47 1
    41   25   26 ar
    42   25   56 1
    43   26   31 ar
    44   26   27 ar
    45   27   28 ar
    46   28   29 ar
    47   28   48 1
    48   29   30 ar
    49   29   34 1
    50   30   31 ar
    51   30   32 1
    52   31   49 1
    53   32   33 1
    54   33   50 1
    55   33   51 1
    56   33   52 1
    57   34   35 1
    58   35   53 1
    59   35   54 1
    60   35   55 1
@<TRIPOS>MOLECULE
CHEMBL151067
   43    46     0     0     0
SMALL
USER_CHARGES

@<TRIPOS>ATOM
      1 C1         -0.2874    1.4785   -0.1530 C.3       1 <0>         0.0208
      2 O1         -0.5676    0.0892   -0.3365 O.3       1 <0>        -0.2981
      3 C2         -0.0342   -0.5082   -1.4354 C.ar      1 <0>         0.1150
      4 C3          0.7339    0.2234   -2.2962 C.ar      1 <0>        -0.1505
      5 C4          1.2835   -0.3907   -3.4278 C.ar      1 <0>        -0.1793
      6 C5          1.0408   -1.7649   -3.6740 C.ar      1 <0>         0.2032
      7 C6          0.2505   -2.4955   -2.7785 C.ar      1 <0>        -0.1853
      8 C7         -0.2740   -1.8694   -1.6694 C.ar      1 <0>         0.1690
      9 O2         -1.0366   -2.5772   -0.7959 O.3       1 <0>        -0.2880
     10 C8         -1.2446   -3.9602   -1.0892 C.3       1 <0>         0.1119
     11 C9         -2.1074   -4.5765   -0.0184 C.2       1 <0>        -0.1345
     12 C10        -1.5346   -5.1379    1.1073 C.2       1 <0>        -0.1442
     13 C11        -2.3392   -5.6841    2.0516 C.2       1 <0>        -0.1713
     14 S1         -3.9611   -5.4119    1.3570 S.3       1 <0>         0.0536
     15 C12        -3.4572   -4.5837   -0.1422 C.2       1 <0>        -0.1447
     16 N1          1.5799   -2.3294   -4.7660 N.ar      1 <0>        -0.5367
     17 C13         2.3166   -1.6193   -5.5869 C.ar      1 <0>         0.3400
     18 N2          2.5705   -0.3342   -5.3976 N.ar      1 <0>        -0.5807
     19 C14         2.0864    0.3213   -4.3506 C.ar      1 <0>         0.4634
     20 N3          2.3586    1.6617   -4.1662 N.pl3     1 <0>        -0.6321
     21 C15         3.0386    2.3804   -5.1563 C.ar      1 <0>         0.1337
     22 C16         3.0990    1.8904   -6.4538 C.ar      1 <0>        -0.0986
     23 C17         3.7702    2.6018   -7.4294 C.ar      1 <0>        -0.0926
     24 C18         4.3827    3.8023   -7.1153 C.ar      1 <0>        -0.0316
     25 C19         4.3254    4.2944   -5.8232 C.ar      1 <0>        -0.1216
     26 C20         3.6501    3.5897   -4.8435 C.ar      1 <0>         0.0723
     27 F1          3.5893    4.0726   -3.5832 F         1 <0>        -0.1330
     28 Cl1         5.2251    4.6926   -8.3447 Cl        1 <0>        -0.0556
     29 H1          0.7898    1.6242   -0.0719 H         1 <0>         0.0579
     30 H2         -0.6670    2.0414   -1.0057 H         1 <0>         0.0579
     31 H3         -0.7712    1.8294    0.7585 H         1 <0>         0.1077
     32 H4          0.9160    1.2706   -2.1047 H         1 <0>         0.1394
     33 H5          0.0573   -3.5436   -2.9537 H         1 <0>         0.1568
     34 H6         -1.7402   -4.0562   -2.0552 H         1 <0>         0.0786
     35 H7         -0.2834   -4.4733   -1.1214 H         1 <0>         0.0780
     36 H8         -0.4618   -5.1417    1.2325 H         1 <0>         0.1366
     37 H9         -2.0692   -6.1605    2.9824 H         1 <0>         0.1891
     38 H10        -4.0691   -4.1913   -0.9410 H         1 <0>         0.1892
     39 H11         2.7349   -2.1051   -6.4560 H         1 <0>         0.2010
     40 H12         2.0787    2.1057   -3.3505 H         1 <0>         0.4237
     41 H13         2.6218    0.9535   -6.7003 H         1 <0>         0.1834
     42 H14         3.8174    2.2202   -8.4386 H         1 <0>         0.1456
     43 H15         4.8049    5.2312   -5.5807 H         1 <0>         0.1504
@<TRIPOS>BOND
     1    1    2 1
     2    1   29 1
     3    1   30 1
     4    1   31 1
     5    2    3 1
     6    3    8 ar
     7    3    4 ar
     8    4    5 ar
     9    4   32 1
    10    5   19 ar
    11    5    6 ar
    12    6    7 ar
    13    6   16 ar
    14    7    8 ar
    15    7   33 1
    16    8    9 1
    17    9   10 1
    18   10   11 1
    19   10   34 1
    20   10   35 1
    21   11   15 2
    22   11   12 1
    23   12   13 2
    24   12   36 1
    25   13   14 1
    26   13   37 1
    27   14   15 1
    28   15   38 1
    29   16   17 ar
    30   17   18 ar
    31   17   39 1
    32   18   19 ar
    33   19   20 1
    34   20   21 1
    35   20   40 1
    36   21   26 ar
    37   21   22 ar
    38   22   23 ar
    39   22   41 1
    40   23   24 ar
    41   23   42 1
    42   24   25 ar
    43   24   28 1
    44   25   26 ar
    45   25   43 1
    46   26   27 1
@<TRIPOS>MOLECULE
CHEMBL204446
   53    56     0     0     0
SMALL
USER_CHARGES

@<TRIPOS>ATOM
      1 C1         -0.0034    1.3222    0.0012 C.ar      1 <0>        -0.3292
      2 C2          1.1992    2.0217   -0.0115 C.ar      1 <0>         0.4513
      3 N1          2.3431    1.3401   -0.0250 N.ar      1 <0>        -0.5330
      4 C3          2.3453    0.0226   -0.0264 C.ar      1 <0>         0.3823
      5 N2          1.2283   -0.6757   -0.0151 N.ar      1 <0>        -0.5923
      6 C4          0.0430   -0.0687   -0.0008 C.ar      1 <0>         0.4572
      7 N3         -1.1274   -0.8115    0.0119 N.pl3     1 <0>        -0.6183
      8 C5         -1.0976   -2.2666    0.2261 C.3       1 <0>         0.1051
      9 C6         -2.1001   -2.6156    1.3310 C.3       1 <0>        -0.0204
     10 N4         -3.4217   -2.0820    0.9779 N.4       1 <0>        -0.3821
     11 C7         -3.3740   -0.6150    0.9367 C.3       1 <0>        -0.0261
     12 C8         -2.4351   -0.1661   -0.1822 C.3       1 <0>         0.1005
     13 C9         -4.4049   -2.5102    1.9818 C.3       1 <0>        -0.0102
     14 C10        -5.8026   -2.0612    1.5507 C.3       1 <0>         0.0269
     15 N5         -6.7858   -2.4895    2.5546 N.3       1 <0>        -0.5298
     16 C11        -6.8935   -3.9551    2.5950 C.3       1 <0>         0.0078
     17 C12        -7.8816   -4.3588    3.6925 C.3       1 <0>         0.0605
     18 O1         -9.1423   -3.7299    3.4467 O.3       1 <0>        -0.3778
     19 C13        -9.0744   -2.3021    3.4016 C.3       1 <0>         0.0601
     20 C14        -8.0983   -1.8775    2.3012 C.3       1 <0>         0.0183
     21 N6          1.2066    3.4102   -0.0106 N.pl3     1 <0>        -0.5894
     22 C15         2.4033    4.0947    0.0851 C.2       1 <0>         0.2813
     23 N7          3.6280    3.6019    0.0895 N.2       1 <0>        -0.5131
     24 C16         4.6784    4.3798    0.1874 C.2       1 <0>         0.1553
     25 C17         4.4296    5.7411    0.2853 C.2       1 <0>        -0.1951
     26 S1          2.6453    5.7549    0.2162 S.3       1 <0>         0.2109
     27 C18         5.3489    6.8327    0.4032 C.1       1 <0>         0.2943
     28 N8          6.0782    7.6986    0.4967 N.1       1 <0>        -0.3839
     29 H1         -0.9483    1.8451    0.0167 H         1 <0>         0.1435
     30 H2          3.2903   -0.5000   -0.0375 H         1 <0>         0.2073
     31 H3         -1.3753   -2.7782   -0.6954 H         1 <0>         0.0915
     32 H4         -0.0963   -2.5715    0.5303 H         1 <0>         0.1410
     33 H5         -2.1619   -3.6987    1.4369 H         1 <0>         0.1444
     34 H6         -1.7706   -2.1765    2.2727 H         1 <0>         0.1344
     35 H7         -4.3745   -0.2239    0.7520 H         1 <0>         0.1443
     36 H8         -3.0060   -0.2364    1.8903 H         1 <0>         0.1368
     37 H9         -2.3176    0.9170   -0.1477 H         1 <0>         0.1296
     38 H10        -2.8501   -0.4620   -1.1456 H         1 <0>         0.0964
     39 H11        -4.3836   -3.5964    2.0710 H         1 <0>         0.1328
     40 H12        -4.1600   -2.0617    2.9446 H         1 <0>         0.1406
     41 H13        -5.8239   -0.9751    1.4615 H         1 <0>         0.0986
     42 H14        -6.0475   -2.5098    0.5879 H         1 <0>         0.0597
     43 H15        -7.2499   -4.3205    1.6319 H         1 <0>         0.0539
     44 H16        -5.9155   -4.3861    2.8093 H         1 <0>         0.0868
     45 H17        -8.0080   -5.4414    3.6882 H         1 <0>         0.1060
     46 H18        -7.4988   -4.0403    4.6621 H         1 <0>         0.0647
     47 H19       -10.0634   -1.8972    3.1869 H         1 <0>         0.1078
     48 H20        -8.7263   -1.9237    4.3627 H         1 <0>         0.0654
     49 H21        -7.9998   -0.7920    2.3010 H         1 <0>         0.0938
     50 H22        -8.4740   -2.2097    1.3334 H         1 <0>         0.0534
     51 H23         0.3718    3.8997   -0.0771 H         1 <0>         0.4409
     52 H24         5.6827    3.9827    0.1919 H         1 <0>         0.1927
     53 H25        -3.6942   -2.4340    0.0723 H         1 <0>         0.4227
@<TRIPOS>BOND
     1    1    6 ar
     2    1    2 ar
     3    1   29 1
     4    2    3 ar
     5    2   21 1
     6    3    4 ar
     7    4    5 ar
     8    4   30 1
     9    5    6 ar
    10    6    7 1
    11    7   12 1
    12    7    8 1
    13    8    9 1
    14    8   31 1
    15    8   32 1
    16    9   10 1
    17    9   33 1
    18    9   34 1
    19   10   11 1
    20   10   13 1
    21   10   53 1
    22   11   12 1
    23   11   35 1
    24   11   36 1
    25   12   37 1
    26   12   38 1
    27   13   14 1
    28   13   39 1
    29   13   40 1
    30   14   15 1
    31   14   41 1
    32   14   42 1
    33   15   20 1
    34   15   16 1
    35   16   17 1
    36   16   43 1
    37   16   44 1
    38   17   18 1
    39   17   45 1
    40   17   46 1
    41   18   19 1
    42   19   20 1
    43   19   47 1
    44   19   48 1
    45   20   49 1
    46   20   50 1
    47   21   22 1
    48   21   51 1
    49   22   26 1
    50   22   23 2
    51   23   24 1
    52   24   25 2
    53   24   52 1
    54   25   26 1
    55   25   27 1
    56   27   28 3
@<TRIPOS>MOLECULE
CHEMBL204446__1
   54    57     0     0     0
SMALL
USER_CHARGES

@<TRIPOS>ATOM
      1 C1         -2.4662    1.2366    0.0306 C.ar      1 <0>        -0.3023
      2 C2         -2.3159   -0.1461    0.0207 C.ar      1 <0>         0.5080
      3 N1         -1.0884   -0.6629    0.0277 N.ar      1 <0>        -0.4763
      4 C3         -0.0267    0.1164    0.0439 C.ar      1 <0>         0.4379
      5 N2         -0.1271    1.4302    0.0542 N.ar      1 <0>        -0.5697
      6 C4         -1.3185    2.0245    0.0418 C.ar      1 <0>         0.4904
      7 N3         -1.4149    3.4074    0.0515 N.pl3     1 <0>        -0.6121
      8 C5         -0.2155    4.2500   -0.0732 C.3       1 <0>         0.0788
      9 C6         -0.4626    5.2867   -1.1741 C.3       1 <0>        -0.0189
     10 N4         -1.6957    6.0275   -0.8797 N.4       1 <0>        -0.3848
     11 C7         -2.8482    5.1188   -0.9269 C.3       1 <0>        -0.0296
     12 C8         -2.7199    4.0738    0.1806 C.3       1 <0>         0.0922
     13 C9         -1.8738    7.0935   -1.8746 C.3       1 <0>        -0.0120
     14 C10        -3.0889    7.9440   -1.4989 C.3       1 <0>         0.0258
     15 N5         -3.2670    9.0100   -2.4938 N.3       1 <0>        -0.5295
     16 C11        -2.1512    9.9660   -2.4471 C.3       1 <0>         0.0079
     17 C12        -2.3462   11.0234   -3.5369 C.3       1 <0>         0.0594
     18 O1         -3.6134   11.6608   -3.3544 O.3       1 <0>        -0.3751
     19 C13        -4.7227   10.7590   -3.3948 C.3       1 <0>         0.0590
     20 C14        -4.5517    9.6990   -2.3035 C.3       1 <0>         0.0184
     21 N6         -3.4294   -0.9756    0.0041 N.pl3     1 <0>        -0.5494
     22 C15        -3.2703   -2.3434   -0.1121 C.2       1 <0>         0.2066
     23 N7         -2.1471   -3.0371   -0.1224 N.2       1 <0>        -0.4979
     24 C16        -2.1500   -4.3425   -0.2404 C.2       1 <0>         0.1369
     25 C17        -3.3931   -4.9479   -0.3530 C.2       1 <0>        -0.1483
     26 S1         -4.4629   -3.5207   -0.2665 S.3       1 <0>         0.2855
     27 C18        -3.7261   -6.3334   -0.4943 C.1       1 <0>         0.2740
     28 N8         -3.9904   -7.4326   -0.6064 N.1       1 <0>        -0.3473
     29 H1         -3.4477    1.6873    0.0253 H         1 <0>         0.1864
     30 H2          0.9547   -0.3345    0.0493 H         1 <0>         0.2548
     31 H3         -0.0249    4.7580    0.8722 H         1 <0>         0.1245
     32 H4          0.6413    3.6307   -0.3388 H         1 <0>         0.1250
     33 H5          0.3772    5.9805   -1.2151 H         1 <0>         0.1597
     34 H6         -0.5631    4.7804   -2.1341 H         1 <0>         0.1428
     35 H7         -3.7665    5.6889   -0.7857 H         1 <0>         0.1594
     36 H8         -2.8766    4.6176   -1.8944 H         1 <0>         0.1442
     37 H9         -3.5182    3.3381    0.0827 H         1 <0>         0.1425
     38 H10        -2.7865    4.5637    1.1521 H         1 <0>         0.1209
     39 H11        -0.9835    7.7218   -1.8973 H         1 <0>         0.1386
     40 H12        -2.0308    6.6501   -2.8580 H         1 <0>         0.1450
     41 H13        -3.9792    7.3156   -1.4762 H         1 <0>         0.0983
     42 H14        -2.9319    8.3873   -0.5155 H         1 <0>         0.0616
     43 H15        -2.1271   10.4499   -1.4707 H         1 <0>         0.0555
     44 H16        -1.2124    9.4384   -2.6157 H         1 <0>         0.0852
     45 H17        -1.5518   11.7667   -3.4693 H         1 <0>         0.1077
     46 H18        -2.3166   10.5462   -4.5165 H         1 <0>         0.0653
     47 H19        -5.6469   11.3111   -3.2243 H         1 <0>         0.1103
     48 H20        -4.7622   10.2741   -4.3702 H         1 <0>         0.0664
     49 H21        -5.3652    8.9763   -2.3673 H         1 <0>         0.0945
     50 H22        -4.5660   10.1786   -1.3248 H         1 <0>         0.0553
     51 H23        -4.3188   -0.5949    0.0740 H         1 <0>         0.4557
     52 H24        -1.2345   -4.9154   -0.2499 H         1 <0>         0.2028
     53 H25         0.6777    1.9716    0.0664 H         1 <0>         0.4426
     54 H26        -1.6292    6.4369    0.0401 H         1 <0>         0.4276
@<TRIPOS>BOND
     1    1    2 ar
     2    1   29 1
     3    1    6 ar
     4    2   21 1
     5    2    3 ar
     6    3    4 ar
     7    4    5 ar
     8    4   30 1
     9    5    6 ar
    10    5   53 1
    11    6    7 1
    12    7   12 1
    13    7    8 1
    14    8    9 1
    15    8   31 1
    16    8   32 1
    17    9   10 1
    18    9   33 1
    19    9   34 1
    20   10   11 1
    21   10   13 1
    22   10   54 1
    23   11   12 1
    24   11   35 1
    25   11   36 1
    26   12   37 1
    27   12   38 1
    28   13   14 1
    29   13   39 1
    30   13   40 1
    31   14   15 1
    32   14   41 1
    33   14   42 1
    34   15   20 1
    35   15   16 1
    36   16   17 1
    37   16   43 1
    38   16   44 1
    39   17   18 1
    40   17   45 1
    41   17   46 1
    42   18   19 1
    43   19   20 1
    44   19   47 1
    45   19   48 1
    46   20   49 1
    47   20   50 1
    48   21   22 1
    49   21   51 1
    50   22   26 1
    51   22   23 2
    52   23   24 1
    53   24   25 2
    54   24   52 1
    55   25   26 1
    56   25   27 1
    57   27   28 3
@<TRIPOS>MOLECULE
CHEMBL204446__2
   52    55     0     0     0
SMALL
USER_CHARGES

@<TRIPOS>ATOM
      1 C1         -0.0068    1.3385    0.0041 C.ar      1 <0>        -0.3337
      2 C2          1.1992    2.0320   -0.0083 C.ar      1 <0>         0.4396
      3 N1          2.3397    1.3449   -0.0240 N.ar      1 <0>        -0.5487
      4 C3          2.3355    0.0274   -0.0278 C.ar      1 <0>         0.3737
      5 N2          1.2151   -0.6654   -0.0168 N.ar      1 <0>        -0.5944
      6 C4          0.0327   -0.0526   -0.0004 C.ar      1 <0>         0.4652
      7 N3         -1.1413   -0.7897    0.0120 N.pl3     1 <0>        -0.5971
      8 C5         -1.1170   -2.2446    0.2261 C.3       1 <0>         0.1297
      9 C6         -2.1072   -2.5887    1.3439 C.3       1 <0>         0.0416
     10 N4         -3.4258   -2.0312    1.0143 N.3       1 <0>        -0.5377
     11 C7         -3.3822   -0.5645    0.9454 C.3       1 <0>         0.0369
     12 C8         -2.4447   -0.1366   -0.1826 C.3       1 <0>         0.1253
     13 C9         -4.4429   -2.4832    1.9731 C.3       1 <0>         0.0594
     14 C10        -5.8323   -2.0937    1.4641 C.3       1 <0>         0.0585
     15 N5         -6.8494   -2.5457    2.4228 N.3       1 <0>        -0.5388
     16 C11        -6.9040   -4.0137    2.4801 C.3       1 <0>         0.0148
     17 C12        -7.9318   -4.4401    3.5316 C.3       1 <0>         0.0624
     18 O1         -9.2008   -3.8631    3.2119 O.3       1 <0>        -0.3848
     19 C13        -9.1842   -2.4345    3.1484 C.3       1 <0>         0.0629
     20 C14        -8.1690   -1.9878    2.0930 C.3       1 <0>         0.0190
     21 N6          1.2135    3.4205   -0.0050 N.pl3     1 <0>        -0.5902
     22 C15         2.4136    4.0990    0.0908 C.2       1 <0>         0.3024
     23 N7          3.6359    3.6001    0.0930 N.2       1 <0>        -0.5177
     24 C16         4.6902    4.3727    0.1913 C.2       1 <0>         0.1633
     25 C17         4.4482    5.7349    0.2920 C.2       1 <0>        -0.2139
     26 S1          2.6639    5.7577    0.2248 S.3       1 <0>         0.1925
     27 C18         5.3730    6.8218    0.4110 C.1       1 <0>         0.3034
     28 N8          6.1066    7.6840    0.5054 N.1       1 <0>        -0.3995
     29 H1         -0.9491    1.8660    0.0213 H         1 <0>         0.1419
     30 H2          3.2779   -0.4999   -0.0406 H         1 <0>         0.2003
     31 H3         -1.4092   -2.7547   -0.6918 H         1 <0>         0.0737
     32 H4         -0.1136   -2.5551    0.5174 H         1 <0>         0.1018
     33 H5         -2.1841   -3.6716    1.4410 H         1 <0>         0.0896
     34 H6         -1.7569   -2.1627    2.2840 H         1 <0>         0.0400
     35 H7         -4.3837   -0.1795    0.7536 H         1 <0>         0.0912
     36 H8         -3.0141   -0.1667    1.8911 H         1 <0>         0.0415
     37 H9         -2.3187    0.9459   -0.1614 H         1 <0>         0.0889
     38 H10        -2.8670   -0.4402   -1.1405 H         1 <0>         0.0794
     39 H11        -4.3856   -3.5664    2.0800 H         1 <0>         0.0776
     40 H12        -4.2652   -2.0127    2.9401 H         1 <0>         0.0450
     41 H13        -5.8896   -1.0105    1.3572 H         1 <0>         0.0760
     42 H14        -6.0100   -2.5642    0.4970 H         1 <0>         0.0466
     43 H15        -7.1961   -4.4054    1.5058 H         1 <0>         0.0457
     44 H16        -5.9230   -4.4041    2.7508 H         1 <0>         0.0875
     45 H17        -8.0172   -5.5267    3.5375 H         1 <0>         0.0993
     46 H18        -7.6120   -4.0941    4.5145 H         1 <0>         0.0599
     47 H19       -10.1752   -2.0707    2.8771 H         1 <0>         0.0996
     48 H20        -8.9007   -2.0302    4.1201 H         1 <0>         0.0602
     49 H21        -8.1114   -0.8994    2.0811 H         1 <0>         0.0864
     50 H22        -8.4814   -2.3471    1.1125 H         1 <0>         0.0450
     51 H23         0.3810    3.9142   -0.0698 H         1 <0>         0.4396
     52 H24         5.6925    3.9706    0.1940 H         1 <0>         0.1894
@<TRIPOS>BOND
     1    1    6 ar
     2    1    2 ar
     3    1   29 1
     4    2    3 ar
     5    2   21 1
     6    3    4 ar
     7    4    5 ar
     8    4   30 1
     9    5    6 ar
    10    6    7 1
    11    7   12 1
    12    7    8 1
    13    8    9 1
    14    8   31 1
    15    8   32 1
    16    9   10 1
    17    9   33 1
    18    9   34 1
    19   10   11 1
    20   10   13 1
    21   11   12 1
    22   11   35 1
    23   11   36 1
    24   12   37 1
    25   12   38 1
    26   13   14 1
    27   13   39 1
    28   13   40 1
    29   14   15 1
    30   14   41 1
    31   14   42 1
    32   15   20 1
    33   15   16 1
    34   16   17 1
    35   16   43 1
    36   16   44 1
    37   17   18 1
    38   17   45 1
    39   17   46 1
    40   18   19 1
    41   19   20 1
    42   19   47 1
    43   19   48 1
    44   20   49 1
    45   20   50 1
    46   21   22 1
    47   21   51 1
    48   22   26 1
    49   22   23 2
    50   23   24 1
    51   24   25 2
    52   24   52 1
    53   25   26 1
    54   25   27 1
    55   27   28 3
@<TRIPOS>MOLECULE
CHEMBL203907
   37    39     0     0     0
SMALL
USER_CHARGES

@<TRIPOS>ATOM
      1 C1         -0.0164    1.3872    0.0098 C.ar      1 <0>        -0.3376
      2 C2          1.1997    2.0630   -0.0017 C.ar      1 <0>         0.4508
      3 N1          2.3300    1.3593   -0.0229 N.ar      1 <0>        -0.5344
      4 C3          2.3064    0.0421   -0.0330 C.ar      1 <0>         0.3819
      5 N2          1.1760   -0.6343   -0.0231 N.ar      1 <0>        -0.5890
      6 C4          0.0028   -0.0043   -0.0014 C.ar      1 <0>         0.4455
      7 N3         -1.1819   -0.7241    0.0098 N.pl3     1 <0>        -0.6096
      8 C5         -1.1198   -2.1958    0.1161 C.3       1 <0>         0.1115
      9 C6         -2.2033   -2.7281    1.0716 C.3       1 <0>        -0.1604
     10 C7         -2.3230   -1.8030    2.2623 C.3       1 <0>        -0.0070
     11 N4         -3.3726   -0.8194    2.0053 N.4       1 <0>        -0.4866
     12 C8         -2.9438    0.3476    1.3348 C.3       1 <0>        -0.0538
     13 C9         -2.4364   -0.0054   -0.0773 C.3       1 <0>         0.1038
     14 N5          1.2343    3.4511    0.0084 N.pl3     1 <0>        -0.5900
     15 C10         2.4445    4.1115    0.1047 C.2       1 <0>         0.2805
     16 N6          3.6593    3.5947    0.1015 N.2       1 <0>        -0.5125
     17 C11         4.7250    4.3513    0.2011 C.2       1 <0>         0.1550
     18 C12         4.5033    5.7164    0.3093 C.2       1 <0>        -0.1939
     19 S1          2.7193    5.7657    0.2464 S.3       1 <0>         0.2098
     20 C13         5.4442    6.7890    0.4315 C.1       1 <0>         0.2937
     21 N7          6.1905    7.6399    0.5285 N.1       1 <0>        -0.3830
     22 H1         -0.9508    1.9284    0.0315 H         1 <0>         0.1416
     23 H2          3.2410   -0.4989   -0.0502 H         1 <0>         0.2066
     24 H3         -1.2681   -2.6324   -0.8715 H         1 <0>         0.0827
     25 H4         -0.1384   -2.4863    0.4910 H         1 <0>         0.1136
     26 H5         -3.1587   -2.7730    0.5487 H         1 <0>         0.0893
     27 H6         -1.9284   -3.7261    1.4129 H         1 <0>         0.1262
     28 H7         -2.5770   -2.3828    3.1496 H         1 <0>         0.1390
     29 H8         -1.3745   -1.2899    2.4214 H         1 <0>         0.1310
     30 H9         -4.0919   -1.2590    1.4509 H         1 <0>         0.4234
     31 H10        -3.7773    1.0457    1.2563 H         1 <0>         0.1488
     32 H11        -2.1376    0.8138    1.9011 H         1 <0>         0.1317
     33 H12        -2.2890    0.9134   -0.6448 H         1 <0>         0.1225
     34 H13        -3.1759   -0.6271   -0.5821 H         1 <0>         0.1057
     35 H14         0.4091    3.9573   -0.0522 H         1 <0>         0.4402
     36 H15         5.7214    3.9346    0.1995 H         1 <0>         0.1928
     37 H16        -3.7779   -0.5483    2.8887 H         1 <0>         0.4302
@<TRIPOS>BOND
     1    1    6 ar
     2    1    2 ar
     3    1   22 1
     4    2    3 ar
     5    2   14 1
     6    3    4 ar
     7    4    5 ar
     8    4   23 1
     9    5    6 ar
    10    6    7 1
    11    7   13 1
    12    7    8 1
    13    8    9 1
    14    8   24 1
    15    8   25 1
    16    9   10 1
    17    9   26 1
    18    9   27 1
    19   10   11 1
    20   10   28 1
    21   10   29 1
    22   11   12 1
    23   11   30 1
    24   11   37 1
    25   12   13 1
    26   12   31 1
    27   12   32 1
    28   13   33 1
    29   13   34 1
    30   14   15 1
    31   14   35 1
    32   15   19 1
    33   15   16 2
    34   16   17 1
    35   17   18 2
    36   17   36 1
    37   18   19 1
    38   18   20 1
    39   20   21 3
@<TRIPOS>MOLECULE
CHEMBL524453
   63    67     0     0     0
SMALL
USER_CHARGES

@<TRIPOS>ATOM
      1 C1          5.4627   -3.6689    1.4559 C.3       1 <0>         0.0717
      2 N1          4.7112   -2.4427    1.7350 N.am      1 <0>        -0.5681
      3 C2          3.5571   -2.4935    2.5269 C.ar      1 <0>         0.0960
      4 C3          2.4295   -3.1624    2.0686 C.ar      1 <0>        -0.0761
      5 C4          1.2919   -3.2123    2.8486 C.ar      1 <0>        -0.1560
      6 C5          1.2749   -2.5937    4.0925 C.ar      1 <0>         0.1982
      7 C6          2.4032   -1.9249    4.5509 C.ar      1 <0>        -0.1595
      8 C7          3.5423   -1.8798    3.7727 C.ar      1 <0>        -0.0585
      9 N2          0.1223   -2.6436    4.8828 N.pl3     1 <0>        -0.6662
     10 C8          0.0454   -1.8988    6.0293 C.2       1 <0>         0.3321
     11 C9         -0.1671   -2.5258    7.2536 C.2       1 <0>        -0.2236
     12 C10        -0.4269   -1.8763    8.5527 C.ar      1 <0>        -0.0493
     13 C11        -0.5365   -0.5460    8.9553 C.ar      1 <0>        -0.0882
     14 C12        -0.7884   -0.2471   10.2633 C.ar      1 <0>        -0.0780
     15 C13        -0.9379   -1.2739   11.2035 C.ar      1 <0>        -0.0975
     16 C14        -0.8304   -2.6096   10.8102 C.ar      1 <0>        -0.0683
     17 C15        -0.5745   -2.9174    9.4849 C.ar      1 <0>         0.1291
     18 N3         -0.4183   -4.1255    8.8161 N.am      1 <0>        -0.6523
     19 C16        -0.1848   -3.9227    7.5087 C.2       1 <0>         0.5649
     20 O1         -0.0125   -4.7964    6.6766 O.2       1 <0>        -0.5082
     21 C17        -1.2094   -0.9437   12.6142 C.2       1 <0>         0.5094
     22 O2         -1.3395   -1.8328   13.4322 O.2       1 <0>        -0.5013
     23 O3         -1.3132    0.3444   12.9968 O.3       1 <0>        -0.3473
     24 C18        -1.5773    0.5912   14.3793 C.3       1 <0>         0.0340
     25 C19         0.1877   -0.4327    5.9668 C.ar      1 <0>        -0.0989
     26 C20         1.1208    0.2177    6.7792 C.ar      1 <0>        -0.0829
     27 C21         1.2482    1.5893    6.7153 C.ar      1 <0>        -0.1216
     28 C22         0.4549    2.3217    5.8495 C.ar      1 <0>        -0.0920
     29 C23        -0.4712    1.6849    5.0420 C.ar      1 <0>        -0.1194
     30 C24        -0.6060    0.3133    5.0907 C.ar      1 <0>        -0.0761
     31 C25         5.1305   -1.2656    1.2297 C.2       1 <0>         0.4954
     32 O4          4.5611   -0.2384    1.5326 O.2       1 <0>        -0.4999
     33 C26         6.3067   -1.2259    0.2884 C.3       1 <0>         0.0910
     34 N4          6.5615    0.1588   -0.1164 N.pl3     1 <0>        -0.4500
     35 C27         6.0172    0.8032   -1.1945 C.2       1 <0>        -0.0475
     36 C28         6.5182    2.0532   -1.1950 C.2       1 <0>        -0.0252
     37 N5          7.3458    2.1690   -0.1459 N.2       1 <0>        -0.4909
     38 C29         7.3729    1.0397    0.5076 C.2       1 <0>         0.1930
     39 H1          5.0792   -4.1309    0.5461 H         1 <0>         0.0657
     40 H2          6.5172   -3.4267    1.3238 H         1 <0>         0.0774
     41 H3          5.3507   -4.3615    2.2901 H         1 <0>         0.0824
     42 H4          2.4427   -3.6433    1.1017 H         1 <0>         0.1290
     43 H5          0.4149   -3.7319    2.4919 H         1 <0>         0.1320
     44 H6          2.3902   -1.4437    5.5176 H         1 <0>         0.1284
     45 H7          4.4208   -1.3638    4.1309 H         1 <0>         0.1249
     46 H8         -0.6227   -3.2059    4.6188 H         1 <0>         0.4219
     47 H9         -0.4217    0.2481    8.2324 H         1 <0>         0.1433
     48 H10        -0.8723    0.7839   10.5737 H         1 <0>         0.1451
     49 H11        -0.9458   -3.3996   11.5375 H         1 <0>         0.1437
     50 H12        -0.4745   -4.9981    9.2360 H         1 <0>         0.4200
     51 H13        -1.6365    1.6659   14.5517 H         1 <0>         0.1054
     52 H14        -2.5230    0.1260   14.6573 H         1 <0>         0.0625
     53 H15        -0.7737    0.1701   14.9836 H         1 <0>         0.0626
     54 H16         1.7403   -0.3526    7.4556 H         1 <0>         0.1306
     55 H17         1.9685    2.0932    7.3427 H         1 <0>         0.1327
     56 H18         0.5589    3.3958    5.8040 H         1 <0>         0.1293
     57 H19        -1.0868    2.2630    4.3688 H         1 <0>         0.1301
     58 H20        -1.3260   -0.1828    4.4567 H         1 <0>         0.1256
     59 H21         7.1876   -1.6256    0.7906 H         1 <0>         0.1258
     60 H22         6.0868   -1.8276   -0.5935 H         1 <0>         0.1245
     61 H23         5.3202    0.3886   -1.9078 H         1 <0>         0.1724
     62 H24         6.2930    2.8269   -1.9141 H         1 <0>         0.1705
     63 H25         7.9505    0.8416    1.3984 H         1 <0>         0.2024
@<TRIPOS>BOND
     1    1    2 1
     2    1   39 1
     3    1   40 1
     4    1   41 1
     5    2    3 1
     6    2   31 am
     7    3    8 ar
     8    3    4 ar
     9    4    5 ar
    10    4   42 1
    11    5    6 ar
    12    5   43 1
    13    6    7 ar
    14    6    9 1
    15    7    8 ar
    16    7   44 1
    17    8   45 1
    18    9   10 1
    19    9   46 1
    20   10   11 2
    21   10   25 1
    22   11   19 1
    23   11   12 1
    24   12   17 ar
    25   12   13 ar
    26   13   14 ar
    27   13   47 1
    28   14   15 ar
    29   14   48 1
    30   15   16 ar
    31   15   21 1
    32   16   17 ar
    33   16   49 1
    34   17   18 1
    35   18   19 am
    36   18   50 1
    37   19   20 2
    38   21   22 2
    39   21   23 1
    40   23   24 1
    41   24   51 1
    42   24   52 1
    43   24   53 1
    44   25   30 ar
    45   25   26 ar
    46   26   27 ar
    47   26   54 1
    48   27   28 ar
    49   27   55 1
    50   28   29 ar
    51   28   56 1
    52   29   30 ar
    53   29   57 1
    54   30   58 1
    55   31   32 2
    56   31   33 1
    57   33   34 1
    58   33   59 1
    59   33   60 1
    60   34   38 1
    61   34   35 1
    62   35   36 2
    63   35   61 1
    64   36   37 1
    65   36   62 1
    66   37   38 2
    67   38   63 1
@<TRIPOS>MOLECULE
CHEMBL524453__1
   64    68     0     0     0
SMALL
USER_CHARGES

@<TRIPOS>ATOM
      1 C1          5.5547   -3.7161    1.2450 C.3       1 <0>         0.0631
      2 N1          4.7589   -2.5310    1.5745 N.am      1 <0>        -0.5500
      3 C2          3.6185   -2.6545    2.3782 C.ar      1 <0>         0.0783
      4 C3          2.5120   -3.3520    1.9110 C.ar      1 <0>        -0.0695
      5 C4          1.3879   -3.4735    2.7026 C.ar      1 <0>        -0.1595
      6 C5          1.3634   -2.8984    3.9670 C.ar      1 <0>         0.2052
      7 C6          2.4705   -2.2011    4.4344 C.ar      1 <0>        -0.1575
      8 C7          3.5963   -2.0844    3.6444 C.ar      1 <0>        -0.0541
      9 N2          0.2244   -3.0209    4.7691 N.pl3     1 <0>        -0.6753
     10 C8          0.1365   -2.3240    5.9446 C.2       1 <0>         0.3216
     11 C9         -0.0494   -3.0041    7.1447 C.2       1 <0>        -0.2123
     12 C10        -0.0389   -4.4651    7.3503 C.ar      1 <0>        -0.0610
     13 C11         0.1424   -5.5527    6.4971 C.ar      1 <0>        -0.0817
     14 C12         0.0965   -6.8241    6.9923 C.ar      1 <0>        -0.0794
     15 C13        -0.1319   -7.0398    8.3569 C.ar      1 <0>        -0.0915
     16 C14        -0.3143   -5.9570    9.2198 C.ar      1 <0>        -0.0676
     17 C15        -0.2691   -4.6660    8.7219 C.ar      1 <0>         0.1345
     18 N3         -0.4123   -3.4226    9.3256 N.am      1 <0>        -0.6519
     19 C16        -0.2822   -2.4346    8.4245 C.2       1 <0>         0.5656
     20 O1         -0.3554   -1.2422    8.6660 O.2       1 <0>        -0.4952
     21 C17        -0.1806   -8.4153    8.8845 C.2       1 <0>         0.5071
     22 O2         -0.3788   -8.6053   10.0683 O.2       1 <0>        -0.4969
     23 O3         -0.0054   -9.4622    8.0541 O.3       1 <0>        -0.3481
     24 C18        -0.0652  -10.7670    8.6336 C.3       1 <0>         0.0334
     25 C19         0.2388   -0.8532    5.9390 C.ar      1 <0>        -0.0987
     26 C20        -0.5321   -0.0989    5.0498 C.ar      1 <0>        -0.0769
     27 C21        -0.4310    1.2764    5.0504 C.ar      1 <0>        -0.1280
     28 C22         0.4311    1.9099    5.9283 C.ar      1 <0>        -0.0917
     29 C23         1.1976    1.1698    6.8115 C.ar      1 <0>        -0.1240
     30 C24         1.1030   -0.2059    6.8266 C.ar      1 <0>        -0.0450
     31 C25         5.1242   -1.3219    1.1043 C.2       1 <0>         0.4948
     32 O4          4.5210   -0.3286    1.4516 O.2       1 <0>        -0.5072
     33 C26         6.2821   -1.2042    0.1470 C.3       1 <0>         0.0768
     34 N4          6.4769    0.2025   -0.2131 N.pl3     1 <0>        -0.4003
     35 C27         5.8899    0.8619   -1.2592 C.2       1 <0>         0.0360
     36 C28         6.3426    2.1297   -1.2239 C.2       1 <0>         0.0060
     37 N5          7.1831    2.2414   -0.1846 N.pl3     1 <0>        -0.4729
     38 C29         7.2645    1.0922    0.4285 C.cat     1 <0>         0.3014
     39 H1          5.1777   -4.1626    0.3249 H         1 <0>         0.0739
     40 H2          6.5968   -3.4275    1.1084 H         1 <0>         0.0777
     41 H3          5.4815   -4.4400    2.0566 H         1 <0>         0.0918
     42 H4          2.5311   -3.7990    0.9280 H         1 <0>         0.1308
     43 H5          0.5273   -4.0152    2.3389 H         1 <0>         0.1363
     44 H6          2.4516   -1.7537    5.4171 H         1 <0>         0.1323
     45 H7          4.4586   -1.5462    4.0094 H         1 <0>         0.1239
     46 H8         -0.5034   -3.5996    4.4928 H         1 <0>         0.4209
     47 H9          0.3188   -5.3895    5.4442 H         1 <0>         0.1316
     48 H10         0.2365   -7.6656    6.3300 H         1 <0>         0.1460
     49 H11        -0.4908   -6.1262   10.2718 H         1 <0>         0.1461
     50 H12        -0.5796   -3.2862   10.2713 H         1 <0>         0.4225
     51 H13        -1.0430  -10.9168    9.0914 H         1 <0>         0.0640
     52 H14         0.0914  -11.5166    7.8579 H         1 <0>         0.1064
     53 H15         0.7103  -10.8630    9.3935 H         1 <0>         0.0636
     54 H16        -1.2050   -0.5920    4.3639 H         1 <0>         0.1223
     55 H17        -1.0257    1.8605    4.3638 H         1 <0>         0.1270
     56 H18         0.5064    2.9873    5.9239 H         1 <0>         0.1256
     57 H19         1.8682    1.6711    7.4938 H         1 <0>         0.1273
     58 H20         1.6984   -0.7819    7.5195 H         1 <0>         0.1220
     59 H21         7.1860   -1.5863    0.6213 H         1 <0>         0.1517
     60 H22         6.0707   -1.7834   -0.7519 H         1 <0>         0.1554
     61 H23         5.1972    0.4454   -1.9755 H         1 <0>         0.2224
     62 H24         6.0757    2.9183   -1.9118 H         1 <0>         0.2254
     63 H25         7.8644    0.8862    1.3026 H         1 <0>         0.2595
     64 H26         7.6533    3.0497    0.0730 H         1 <0>         0.4663
@<TRIPOS>BOND
     1    1    2 1
     2    1   39 1
     3    1   40 1
     4    1   41 1
     5    2    3 1
     6    2   31 am
     7    3    8 ar
     8    3    4 ar
     9    4    5 ar
    10    4   42 1
    11    5    6 ar
    12    5   43 1
    13    6    7 ar
    14    6    9 1
    15    7    8 ar
    16    7   44 1
    17    8   45 1
    18    9   10 1
    19    9   46 1
    20   10   11 2
    21   10   25 1
    22   11   19 1
    23   11   12 1
    24   12   17 ar
    25   12   13 ar
    26   13   14 ar
    27   13   47 1
    28   14   15 ar
    29   14   48 1
    30   15   16 ar
    31   15   21 1
    32   16   17 ar
    33   16   49 1
    34   17   18 1
    35   18   19 am
    36   18   50 1
    37   19   20 2
    38   21   22 2
    39   21   23 1
    40   23   24 1
    41   24   51 1
    42   24   52 1
    43   24   53 1
    44   25   30 ar
    45   25   26 ar
    46   26   27 ar
    47   26   54 1
    48   27   28 ar
    49   27   55 1
    50   28   29 ar
    51   28   56 1
    52   29   30 ar
    53   29   57 1
    54   30   58 1
    55   31   32 2
    56   31   33 1
    57   33   34 1
    58   33   59 1
    59   33   60 1
    60   34   38 1
    61   34   35 1
    62   35   36 2
    63   35   61 1
    64   36   37 1
    65   36   62 1
    66   37   38 2
    67   37   64 1
    68   38   63 1
@<TRIPOS>MOLECULE
CHEMBL524453__2
   64    68     0     0     0
SMALL
USER_CHARGES

@<TRIPOS>ATOM
      1 C1          5.4627   -3.6689    1.4559 C.3       1 <0>         0.0626
      2 N1          4.7112   -2.4427    1.7350 N.am      1 <0>        -0.5484
      3 C2          3.5571   -2.4935    2.5269 C.ar      1 <0>         0.0745
      4 C3          2.4295   -3.1624    2.0686 C.ar      1 <0>        -0.0690
      5 C4          1.2919   -3.2123    2.8486 C.ar      1 <0>        -0.1576
      6 C5          1.2749   -2.5937    4.0925 C.ar      1 <0>         0.2126
      7 C6          2.4032   -1.9249    4.5509 C.ar      1 <0>        -0.1626
      8 C7          3.5423   -1.8798    3.7727 C.ar      1 <0>        -0.0542
      9 N2          0.1223   -2.6436    4.8828 N.pl3     1 <0>        -0.6653
     10 C8          0.0454   -1.8988    6.0293 C.2       1 <0>         0.3170
     11 C9         -0.1671   -2.5258    7.2536 C.2       1 <0>        -0.2086
     12 C10        -0.4269   -1.8763    8.5527 C.ar      1 <0>        -0.0577
     13 C11        -0.5365   -0.5460    8.9553 C.ar      1 <0>        -0.0858
     14 C12        -0.7884   -0.2471   10.2633 C.ar      1 <0>        -0.0789
     15 C13        -0.9379   -1.2739   11.2035 C.ar      1 <0>        -0.0912
     16 C14        -0.8304   -2.6096   10.8102 C.ar      1 <0>        -0.0681
     17 C15        -0.5745   -2.9174    9.4849 C.ar      1 <0>         0.1322
     18 N3         -0.4183   -4.1255    8.8161 N.am      1 <0>        -0.6514
     19 C16        -0.1848   -3.9227    7.5087 C.2       1 <0>         0.5641
     20 O1         -0.0125   -4.7964    6.6766 O.2       1 <0>        -0.5066
     21 C17        -1.2094   -0.9437   12.6142 C.2       1 <0>         0.5074
     22 O2         -1.3395   -1.8328   13.4322 O.2       1 <0>        -0.4978
     23 O3         -1.3132    0.3444   12.9968 O.3       1 <0>        -0.3475
     24 C18        -1.5773    0.5912   14.3793 C.3       1 <0>         0.0335
     25 C19         0.1877   -0.4327    5.9668 C.ar      1 <0>        -0.0955
     26 C20         1.1208    0.2177    6.7792 C.ar      1 <0>        -0.0840
     27 C21         1.2482    1.5893    6.7153 C.ar      1 <0>        -0.1222
     28 C22         0.4549    2.3217    5.8495 C.ar      1 <0>        -0.0939
     29 C23        -0.4712    1.6849    5.0420 C.ar      1 <0>        -0.1194
     30 C24        -0.6060    0.3133    5.0907 C.ar      1 <0>        -0.0770
     31 C25         5.1305   -1.2656    1.2297 C.2       1 <0>         0.4949
     32 O4          4.5611   -0.2384    1.5326 O.2       1 <0>        -0.5087
     33 C26         6.3067   -1.2259    0.2884 C.3       1 <0>         0.0765
     34 N4          6.5615    0.1588   -0.1164 N.pl3     1 <0>        -0.3998
     35 C27         6.0168    0.8033   -1.1942 C.2       1 <0>         0.0362
     36 C28         6.5179    2.0533   -1.1948 C.2       1 <0>         0.0057
     37 N5          7.3460    2.1689   -0.1461 N.pl3     1 <0>        -0.4729
     38 C29         7.3732    1.0396    0.5073 C.cat     1 <0>         0.3011
     39 H1          5.0792   -4.1309    0.5461 H         1 <0>         0.0739
     40 H2          6.5172   -3.4267    1.3238 H         1 <0>         0.0776
     41 H3          5.3507   -4.3615    2.2901 H         1 <0>         0.0918
     42 H4          2.4427   -3.6433    1.1017 H         1 <0>         0.1302
     43 H5          0.4149   -3.7319    2.4919 H         1 <0>         0.1356
     44 H6          2.3902   -1.4437    5.5176 H         1 <0>         0.1312
     45 H7          4.4208   -1.3638    4.1309 H         1 <0>         0.1233
     46 H8         -0.6227   -3.2059    4.6188 H         1 <0>         0.4237
     47 H9         -0.4217    0.2481    8.2324 H         1 <0>         0.1424
     48 H10        -0.8723    0.7839   10.5737 H         1 <0>         0.1463
     49 H11        -0.9458   -3.3996   11.5375 H         1 <0>         0.1457
     50 H12        -0.4745   -4.9981    9.2360 H         1 <0>         0.4220
     51 H13        -0.7737    0.1701   14.9836 H         1 <0>         0.0635
     52 H14        -1.6365    1.6659   14.5517 H         1 <0>         0.1064
     53 H15        -2.5230    0.1260   14.6573 H         1 <0>         0.0638
     54 H16         1.7403   -0.3526    7.4556 H         1 <0>         0.1309
     55 H17         1.9685    2.0932    7.3427 H         1 <0>         0.1324
     56 H18         0.5589    3.3958    5.8040 H         1 <0>         0.1289
     57 H19        -1.0868    2.2630    4.3688 H         1 <0>         0.1302
     58 H20        -1.3260   -0.1828    4.4567 H         1 <0>         0.1262
     59 H21         7.1876   -1.6256    0.7906 H         1 <0>         0.1516
     60 H22         6.0868   -1.8276   -0.5935 H         1 <0>         0.1553
     61 H23         5.3195    0.3889   -1.9072 H         1 <0>         0.2222
     62 H24         6.2925    2.8270   -1.9138 H         1 <0>         0.2254
     63 H25         7.9512    0.8414    1.3979 H         1 <0>         0.2594
     64 H26         7.8433    2.9671    0.0914 H         1 <0>         0.4661
@<TRIPOS>BOND
     1    1    2 1
     2    1   39 1
     3    1   40 1
     4    1   41 1
     5    2    3 1
     6    2   31 am
     7    3    8 ar
     8    3    4 ar
     9    4    5 ar
    10    4   42 1
    11    5    6 ar
    12    5   43 1
    13    6    7 ar
    14    6    9 1
    15    7    8 ar
    16    7   44 1
    17    8   45 1
    18    9   10 1
    19    9   46 1
    20   10   11 2
    21   10   25 1
    22   11   19 1
    23   11   12 1
    24   12   17 ar
    25   12   13 ar
    26   13   14 ar
    27   13   47 1
    28   14   15 ar
    29   14   48 1
    30   15   16 ar
    31   15   21 1
    32   16   17 ar
    33   16   49 1
    34   17   18 1
    35   18   19 am
    36   18   50 1
    37   19   20 2
    38   21   22 2
    39   21   23 1
    40   23   24 1
    41   24   51 1
    42   24   52 1
    43   24   53 1
    44   25   30 ar
    45   25   26 ar
    46   26   27 ar
    47   26   54 1
    48   27   28 ar
    49   27   55 1
    50   28   29 ar
    51   28   56 1
    52   29   30 ar
    53   29   57 1
    54   30   58 1
    55   31   32 2
    56   31   33 1
    57   33   34 1
    58   33   59 1
    59   33   60 1
    60   34   38 1
    61   34   35 1
    62   35   36 2
    63   35   61 1
    64   36   37 1
    65   36   62 1
    66   37   38 2
    67   37   64 1
    68   38   63 1
@<TRIPOS>MOLECULE
CHEMBL524453__3
   63    67     0     0     0
SMALL
USER_CHARGES

@<TRIPOS>ATOM
      1 C1          5.5547   -3.7161    1.2450 C.3       1 <0>         0.0721
      2 N1          4.7589   -2.5310    1.5745 N.am      1 <0>        -0.5694
      3 C2          3.6185   -2.6545    2.3782 C.ar      1 <0>         0.0995
      4 C3          2.5120   -3.3520    1.9110 C.ar      1 <0>        -0.0766
      5 C4          1.3879   -3.4735    2.7026 C.ar      1 <0>        -0.1579
      6 C5          1.3634   -2.8984    3.9670 C.ar      1 <0>         0.1908
      7 C6          2.4705   -2.2011    4.4344 C.ar      1 <0>        -0.1545
      8 C7          3.5963   -2.0844    3.6444 C.ar      1 <0>        -0.0583
      9 N2          0.2244   -3.0209    4.7691 N.pl3     1 <0>        -0.6767
     10 C8          0.1365   -2.3240    5.9446 C.2       1 <0>         0.3370
     11 C9         -0.0494   -3.0041    7.1447 C.2       1 <0>        -0.2273
     12 C10        -0.0389   -4.4651    7.3503 C.ar      1 <0>        -0.0523
     13 C11         0.1424   -5.5527    6.4971 C.ar      1 <0>        -0.0840
     14 C12         0.0965   -6.8241    6.9923 C.ar      1 <0>        -0.0783
     15 C13        -0.1319   -7.0398    8.3569 C.ar      1 <0>        -0.0979
     16 C14        -0.3143   -5.9570    9.2198 C.ar      1 <0>        -0.0679
     17 C15        -0.2691   -4.6660    8.7219 C.ar      1 <0>         0.1311
     18 N3         -0.4123   -3.4226    9.3256 N.am      1 <0>        -0.6527
     19 C16        -0.2822   -2.4346    8.4245 C.2       1 <0>         0.5665
     20 O1         -0.3554   -1.2422    8.6660 O.2       1 <0>        -0.4975
     21 C17        -0.1806   -8.4153    8.8845 C.2       1 <0>         0.5092
     22 O2         -0.3788   -8.6053   10.0683 O.2       1 <0>        -0.5005
     23 O3         -0.0054   -9.4622    8.0541 O.3       1 <0>        -0.3479
     24 C18        -0.0652  -10.7670    8.6336 C.3       1 <0>         0.0340
     25 C19         0.2388   -0.8532    5.9390 C.ar      1 <0>        -0.1019
     26 C20        -0.5321   -0.0989    5.0498 C.ar      1 <0>        -0.0758
     27 C21        -0.4310    1.2764    5.0504 C.ar      1 <0>        -0.1279
     28 C22         0.4311    1.9099    5.9283 C.ar      1 <0>        -0.0898
     29 C23         1.1976    1.1698    6.8115 C.ar      1 <0>        -0.1238
     30 C24         1.1030   -0.2059    6.8266 C.ar      1 <0>        -0.0435
     31 C25         5.1242   -1.3219    1.1043 C.2       1 <0>         0.4952
     32 O4          4.5210   -0.3286    1.4516 O.2       1 <0>        -0.4985
     33 C26         6.2821   -1.2042    0.1470 C.3       1 <0>         0.0913
     34 N4          6.4769    0.2025   -0.2131 N.pl3     1 <0>        -0.4504
     35 C27         5.8903    0.8618   -1.2595 C.2       1 <0>        -0.0477
     36 C28         6.3428    2.1296   -1.2240 C.2       1 <0>        -0.0249
     37 N5          7.1829    2.2415   -0.1844 N.2       1 <0>        -0.4907
     38 C29         7.2641    1.0923    0.4288 C.2       1 <0>         0.1931
     39 H1          5.1777   -4.1626    0.3249 H         1 <0>         0.0658
     40 H2          6.5968   -3.4275    1.1084 H         1 <0>         0.0775
     41 H3          5.4815   -4.4400    2.0566 H         1 <0>         0.0824
     42 H4          2.5311   -3.7990    0.9280 H         1 <0>         0.1296
     43 H5          0.5273   -4.0152    2.3389 H         1 <0>         0.1327
     44 H6          2.4516   -1.7537    5.4171 H         1 <0>         0.1295
     45 H7          4.4586   -1.5462    4.0094 H         1 <0>         0.1255
     46 H8         -0.5034   -3.5996    4.4928 H         1 <0>         0.4191
     47 H9          0.3188   -5.3895    5.4442 H         1 <0>         0.1328
     48 H10         0.2365   -7.6656    6.3300 H         1 <0>         0.1449
     49 H11        -0.4908   -6.1262   10.2718 H         1 <0>         0.1441
     50 H12        -0.5796   -3.2862   10.2713 H         1 <0>         0.4206
     51 H13         0.0914  -11.5166    7.8579 H         1 <0>         0.1054
     52 H14         0.7103  -10.8630    9.3935 H         1 <0>         0.0628
     53 H15        -1.0430  -10.9168    9.0914 H         1 <0>         0.0628
     54 H16        -1.2050   -0.5920    4.3639 H         1 <0>         0.1218
     55 H17        -1.0257    1.8605    4.3638 H         1 <0>         0.1269
     56 H18         0.5064    2.9873    5.9239 H         1 <0>         0.1260
     57 H19         1.8682    1.6711    7.4938 H         1 <0>         0.1273
     58 H20         1.6984   -0.7819    7.5195 H         1 <0>         0.1216
     59 H21         7.1860   -1.5863    0.6213 H         1 <0>         0.1259
     60 H22         6.0707   -1.7834   -0.7519 H         1 <0>         0.1246
     61 H23         5.1979    0.4452   -1.9760 H         1 <0>         0.1725
     62 H24         6.0762    2.9182   -1.9121 H         1 <0>         0.1706
     63 H25         7.8637    0.8864    1.3031 H         1 <0>         0.2025
@<TRIPOS>BOND
     1    1    2 1
     2    1   39 1
     3    1   40 1
     4    1   41 1
     5    2    3 1
     6    2   31 am
     7    3    8 ar
     8    3    4 ar
     9    4    5 ar
    10    4   42 1
    11    5    6 ar
    12    5   43 1
    13    6    7 ar
    14    6    9 1
    15    7    8 ar
    16    7   44 1
    17    8   45 1
    18    9   10 1
    19    9   46 1
    20   10   11 2
    21   10   25 1
    22   11   19 1
    23   11   12 1
    24   12   17 ar
    25   12   13 ar
    26   13   14 ar
    27   13   47 1
    28   14   15 ar
    29   14   48 1
    30   15   16 ar
    31   15   21 1
    32   16   17 ar
    33   16   49 1
    34   17   18 1
    35   18   19 am
    36   18   50 1
    37   19   20 2
    38   21   22 2
    39   21   23 1
    40   23   24 1
    41   24   51 1
    42   24   52 1
    43   24   53 1
    44   25   30 ar
    45   25   26 ar
    46   26   27 ar
    47   26   54 1
    48   27   28 ar
    49   27   55 1
    50   28   29 ar
    51   28   56 1
    52   29   30 ar
    53   29   57 1
    54   30   58 1
    55   31   32 2
    56   31   33 1
    57   33   34 1
    58   33   59 1
    59   33   60 1
    60   34   38 1
    61   34   35 1
    62   35   36 2
    63   35   61 1
    64   36   37 1
    65   36   62 1
    66   37   38 2
    67   38   63 1
@<TRIPOS>MOLECULE
CHEMBL117983
   52    56     0     0     0
SMALL
USER_CHARGES

@<TRIPOS>ATOM
      1 C1         -0.0178    1.4648    0.0101 C.3       1 <0>         0.0250
      2 N1          0.0021   -0.0041    0.0020 N.3       1 <0>        -0.5402
      3 C2          0.5920   -0.5157   -1.2422 C.3       1 <0>         0.0392
      4 C3          0.4303   -2.0387   -1.2918 C.3       1 <0>         0.1257
      5 N2          0.9912   -2.6085   -0.0572 N.pl3     1 <0>        -0.9995
      6 C4          0.5491   -2.0510    1.2300 C.3       1 <0>         0.1252
      7 C5          0.7062   -0.5275    1.1802 C.3       1 <0>         0.0393
      8 S1          2.0917   -3.8446   -0.1151 S.o2      1 <0>         2.6933
      9 O1          2.0092   -4.5205    1.1321 O.2       1 <0>        -0.9542
     10 O2          1.8923   -4.5081   -1.3558 O.2       1 <0>        -0.9539
     11 C6          3.6932   -3.1135   -0.1867 C.ar      1 <0>        -0.7007
     12 C7          4.2601   -2.8164   -1.4187 C.ar      1 <0>        -0.0134
     13 C8          5.5112   -2.2440   -1.4977 C.ar      1 <0>        -0.1426
     14 C9          6.2163   -1.9594   -0.3331 C.ar      1 <0>         0.1499
     15 C10         5.6376   -2.2623    0.9144 C.ar      1 <0>        -0.1297
     16 C11         4.3647   -2.8382    0.9706 C.ar      1 <0>         0.0473
     17 C12         6.6079   -1.8521    1.9273 C.2       1 <0>        -0.1439
     18 C13         7.6793   -1.3433    1.2659 C.2       1 <0>         0.1278
     19 N3          7.4536   -1.4034   -0.0904 N.pl3     1 <0>        -0.5836
     20 H1          8.0725   -1.1000   -0.7729 H         1 <0>         0.4181
     21 C14         8.8980   -0.8077    1.9034 C.2       1 <0>        -0.1401
     22 C15         9.2159    0.5291    1.7866 C.2       1 <0>         0.0095
     23 C16        10.3925    1.0154    2.4100 C.ar      1 <0>        -0.1364
     24 C17        10.7392    2.3707    2.3074 C.ar      1 <0>        -0.0499
     25 C18        11.8737    2.8300    2.9113 C.ar      1 <0>        -0.1504
     26 C19        12.6906    1.9661    3.6285 C.ar      1 <0>        -0.0531
     27 C20        12.3712    0.6308    3.7429 C.ar      1 <0>        -0.1670
     28 C21        11.2188    0.1379    3.1363 C.ar      1 <0>         0.1953
     29 N4         10.8946   -1.1986    3.2492 N.am      1 <0>        -0.6274
     30 C22         9.7814   -1.6905    2.6737 C.2       1 <0>         0.5451
     31 O3          9.5093   -2.8722    2.7888 O.2       1 <0>        -0.5130
     32 H2          1.0047    1.8421    0.0024 H         1 <0>         0.0249
     33 H3         -0.5450    1.8259   -0.8730 H         1 <0>         0.0702
     34 H4         -0.5280    1.8163    0.9069 H         1 <0>         0.0707
     35 H5          0.0842   -0.0681   -2.0965 H         1 <0>         0.0884
     36 H6          1.6514   -0.2612   -1.2740 H         1 <0>         0.0400
     37 H7         -0.6272   -2.2925   -1.3646 H         1 <0>         0.0846
     38 H8          0.9653   -2.4359   -2.1544 H         1 <0>         0.0943
     39 H9         -0.4970   -2.3059    1.3995 H         1 <0>         0.0850
     40 H10         1.1627   -2.4563    2.0346 H         1 <0>         0.0943
     41 H11         1.7640   -0.2728    1.1147 H         1 <0>         0.0402
     42 H12         0.2811   -0.0884    2.0828 H         1 <0>         0.0887
     43 H13         3.7151   -3.0366   -2.3248 H         1 <0>         0.1419
     44 H14         5.9431   -2.0173   -2.4612 H         1 <0>         0.1309
     45 H15         3.9156   -3.0683    1.9255 H         1 <0>         0.1409
     46 H16         6.4943   -1.9370    2.9980 H         1 <0>         0.1535
     47 H17         8.5771    1.1965    1.2272 H         1 <0>         0.1456
     48 H18        10.1097    3.0496    1.7513 H         1 <0>         0.1372
     49 H19        12.1384    3.8739    2.8304 H         1 <0>         0.1335
     50 H20        13.5851    2.3445    4.1008 H         1 <0>         0.1359
     51 H21        13.0138   -0.0329    4.3024 H         1 <0>         0.1372
     52 H22        11.4744   -1.7908    3.7533 H         1 <0>         0.4204
@<TRIPOS>BOND
     1    1    2 1
     2    1   32 1
     3    1   33 1
     4    1   34 1
     5    2    7 1
     6    2    3 1
     7    3    4 1
     8    3   35 1
     9    3   36 1
    10    4    5 1
    11    4   37 1
    12    4   38 1
    13    5    6 1
    14    5    8 1
    15    6    7 1
    16    6   39 1
    17    6   40 1
    18    7   41 1
    19    7   42 1
    20    8    9 2
    21    8   10 2
    22    8   11 1
    23   11   16 ar
    24   11   12 ar
    25   12   13 ar
    26   12   43 1
    27   13   14 ar
    28   13   44 1
    29   14   19 1
    30   14   15 ar
    31   15   16 ar
    32   15   17 1
    33   16   45 1
    34   17   18 2
    35   17   46 1
    36   18   19 1
    37   18   21 1
    38   19   20 1
    39   21   30 1
    40   21   22 2
    41   22   23 1
    42   22   47 1
    43   23   28 ar
    44   23   24 ar
    45   24   25 ar
    46   24   48 1
    47   25   26 ar
    48   25   49 1
    49   26   27 ar
    50   26   50 1
    51   27   28 ar
    52   27   51 1
    53   28   29 1
    54   29   30 am
    55   29   52 1
    56   30   31 2
@<TRIPOS>MOLECULE
CHEMBL117983__1
   53    57     0     0     0
SMALL
USER_CHARGES

@<TRIPOS>ATOM
      1 C1         -0.0178    1.4648    0.0101 C.3       1 <0>        -0.0467
      2 N1          0.0021   -0.0041    0.0020 N.4       1 <0>        -0.3833
      3 C2          0.6802   -0.4759   -1.2119 C.3       1 <0>        -0.0233
      4 C3          0.6009   -2.0047   -1.2786 C.3       1 <0>         0.0966
      5 N2          1.1441   -2.5548   -0.0269 N.pl3     1 <0>        -1.0135
      6 C4          0.6349   -2.0181    1.2446 C.3       1 <0>         0.0959
      7 C5          0.7126   -0.4887    1.1922 C.3       1 <0>        -0.0233
      8 S1          2.2963   -3.7440   -0.0488 S.o2      1 <0>         2.6907
      9 O1          2.1999   -4.4258    1.1943 O.2       1 <0>        -0.9375
     10 O2          2.1667   -4.4122   -1.2962 O.2       1 <0>        -0.9370
     11 C6          3.8675   -2.9468   -0.0654 C.ar      1 <0>        -0.7081
     12 C7          4.4629   -2.6235   -1.2773 C.ar      1 <0>        -0.0236
     13 C8          5.6911   -1.9995   -1.3132 C.ar      1 <0>        -0.1346
     14 C9          6.3440   -1.6887   -0.1252 C.ar      1 <0>         0.1518
     15 C10         5.7366   -2.0184    1.1017 C.ar      1 <0>        -0.1267
     16 C11         4.4875   -2.6467    1.1142 C.ar      1 <0>         0.0446
     17 C12         6.6543   -1.5707    2.1473 C.2       1 <0>        -0.1497
     18 C13         7.7253   -1.0162    1.5230 C.2       1 <0>         0.1432
     19 N3          7.5482   -1.0824    0.1598 N.pl3     1 <0>        -0.5803
     20 H1          8.1767   -0.7519   -0.5010 H         1 <0>         0.4217
     21 C14         8.8985   -0.4321    2.2020 C.2       1 <0>        -0.1548
     22 C15         9.1643    0.9170    2.0973 C.2       1 <0>         0.0195
     23 C16        10.2979    1.4502    2.7607 C.ar      1 <0>        -0.1424
     24 C17        10.5913    2.8190    2.6713 C.ar      1 <0>        -0.0496
     25 C18        11.6847    3.3235    3.3137 C.ar      1 <0>        -0.1487
     26 C19        12.5121    2.4925    4.0572 C.ar      1 <0>        -0.0479
     27 C20        12.2448    1.1448    4.1594 C.ar      1 <0>        -0.1667
     28 C21        11.1350    0.6060    3.5137 C.ar      1 <0>         0.1981
     29 N4         10.8631   -0.7431    3.6142 N.am      1 <0>        -0.6260
     30 C22         9.7913   -1.2794    3.0008 C.2       1 <0>         0.5460
     31 O3          9.5649   -2.4716    3.1055 O.2       1 <0>        -0.5150
     32 H2          1.0047    1.8421    0.0024 H         1 <0>         0.1214
     33 H3         -0.5450    1.8259   -0.8730 H         1 <0>         0.1257
     34 H4         -0.5280    1.8163    0.9069 H         1 <0>         0.1258
     35 H5          0.1945   -0.0482   -2.0890 H         1 <0>         0.1453
     36 H6          1.7251   -0.1668   -1.1880 H         1 <0>         0.1349
     37 H7         -0.4382   -2.3129   -1.3936 H         1 <0>         0.1039
     38 H8          1.1887   -2.3654   -2.1226 H         1 <0>         0.1356
     39 H9         -0.4008   -2.3277    1.3844 H         1 <0>         0.1044
     40 H10         1.2452   -2.3877    2.0687 H         1 <0>         0.1355
     41 H11         1.7566   -0.1792    1.1434 H         1 <0>         0.1349
     42 H12         0.2508   -0.0704    2.0865 H         1 <0>         0.1456
     43 H13         3.9584   -2.8639   -2.2014 H         1 <0>         0.1421
     44 H14         6.1455   -1.7527   -2.2614 H         1 <0>         0.1341
     45 H15         4.0165   -2.8976    2.0531 H         1 <0>         0.1415
     46 H16         6.5082   -1.6628    3.2134 H         1 <0>         0.1560
     47 H17         8.5176    1.5587    1.5173 H         1 <0>         0.1445
     48 H18         9.9533    3.4725    2.0949 H         1 <0>         0.1370
     49 H19        11.9084    4.3777    3.2428 H         1 <0>         0.1354
     50 H20        13.3737    2.9065    4.5599 H         1 <0>         0.1385
     51 H21        12.8952    0.5070    4.7397 H         1 <0>         0.1392
     52 H22        11.4496   -1.3119    4.1370 H         1 <0>         0.4224
     53 H23        -0.9449   -0.3521    0.0122 H         1 <0>         0.4269
@<TRIPOS>BOND
     1    1    2 1
     2    1   32 1
     3    1   33 1
     4    1   34 1
     5    2    7 1
     6    2    3 1
     7    2   53 1
     8    3    4 1
     9    3   35 1
    10    3   36 1
    11    4    5 1
    12    4   37 1
    13    4   38 1
    14    5    6 1
    15    5    8 1
    16    6    7 1
    17    6   39 1
    18    6   40 1
    19    7   41 1
    20    7   42 1
    21    8    9 2
    22    8   10 2
    23    8   11 1
    24   11   16 ar
    25   11   12 ar
    26   12   13 ar
    27   12   43 1
    28   13   14 ar
    29   13   44 1
    30   14   19 1
    31   14   15 ar
    32   15   16 ar
    33   15   17 1
    34   16   45 1
    35   17   18 2
    36   17   46 1
    37   18   19 1
    38   18   21 1
    39   19   20 1
    40   21   30 1
    41   21   22 2
    42   22   23 1
    43   22   47 1
    44   23   28 ar
    45   23   24 ar
    46   24   25 ar
    47   24   48 1
    48   25   26 ar
    49   25   49 1
    50   26   27 ar
    51   26   50 1
    52   27   28 ar
    53   27   51 1
    54   28   29 1
    55   29   30 am
    56   29   52 1
    57   30   31 2
@<TRIPOS>MOLECULE
CHEMBL260092
   50    53     0     0     0
SMALL
USER_CHARGES

@<TRIPOS>ATOM
      1 C1          2.1490    1.3601    0.9214 C.ar      1 <0>        -0.0972
      2 C2          1.4422    1.6542    2.0732 C.ar      1 <0>        -0.0884
      3 C3          0.6902    0.6750    2.6954 C.ar      1 <0>        -0.1614
      4 C4          0.6427   -0.6009    2.1681 C.ar      1 <0>        -0.0724
      5 C5          1.3508   -0.8993    1.0116 C.ar      1 <0>         0.1631
      6 C6          2.1053    0.0867    0.3889 C.ar      1 <0>        -0.1139
      7 N1          1.3051   -2.1909    0.4751 N.am      1 <0>        -0.6804
      8 C7          0.1839   -2.9296    0.5914 C.2       1 <0>         0.7029
      9 O1         -0.8127   -2.4471    1.0936 O.2       1 <0>        -0.5473
     10 N2          0.1674   -4.2033    0.1510 N.am      1 <0>        -0.6792
     11 C8         -1.0261   -4.9278    0.1546 C.ar      1 <0>         0.1699
     12 C9         -2.2303   -4.2817   -0.1050 C.ar      1 <0>        -0.1234
     13 C10        -3.4097   -4.9921   -0.1020 C.ar      1 <0>        -0.0559
     14 C11        -3.3956   -6.3660    0.1621 C.ar      1 <0>        -0.0742
     15 C12        -2.1821   -7.0119    0.4222 C.ar      1 <0>        -0.0818
     16 C13        -1.0069   -6.2947    0.4120 C.ar      1 <0>        -0.1456
     17 C14        -4.6533   -7.1292    0.1668 C.2       1 <0>         0.2325
     18 N3         -5.7080   -6.4484    0.0770 N.2       1 <0>        -0.5056
     19 C15        -7.0201   -6.7025   -0.0239 C.ar      1 <0>        -0.0813
     20 C16        -7.8927   -5.5869   -0.0927 C.ar      1 <0>         0.4926
     21 N4         -9.1988   -5.7827   -0.2001 N.ar      1 <0>        -0.6077
     22 C17        -9.6994   -7.0012   -0.2445 C.ar      1 <0>         0.3812
     23 N5         -8.9329   -8.0671   -0.1818 N.ar      1 <0>        -0.6070
     24 C18        -7.6033   -7.9709   -0.0694 C.ar      1 <0>         0.4336
     25 N6         -6.8861   -9.1396    0.0034 N.pl3     1 <0>        -0.7145
     26 C19        -5.5628   -9.3344   -0.5443 C.3       1 <0>         0.1312
     27 C20        -4.5144   -8.6069    0.2713 C.3       1 <0>        -0.1581
     28 N7         -7.3829   -4.3003   -0.0475 N.pl3     1 <0>        -0.8126
     29 C21        -0.0781    0.9997    3.9506 C.3       1 <0>         0.5089
     30 F1          0.1246    2.3424    4.2871 F         1 <0>        -0.1761
     31 F2         -1.4417    0.7739    3.7343 F         1 <0>        -0.1722
     32 F3          0.3697    0.1843    4.9955 F         1 <0>        -0.1760
     33 H1          2.7321    2.1282    0.4354 H         1 <0>         0.1418
     34 H2          1.4780    2.6509    2.4876 H         1 <0>         0.1415
     35 H3          0.0557   -1.3656    2.6550 H         1 <0>         0.1487
     36 H4          2.6572   -0.1423   -0.5107 H         1 <0>         0.1370
     37 H5          2.0804   -2.5545    0.0195 H         1 <0>         0.4127
     38 H6          0.9847   -4.6167   -0.1684 H         1 <0>         0.4102
     39 H7         -2.2403   -3.2211   -0.3087 H         1 <0>         0.1355
     40 H8         -4.3443   -4.4896   -0.3029 H         1 <0>         0.1310
     41 H9         -2.1668   -8.0722    0.6268 H         1 <0>         0.1344
     42 H10        -0.0692   -6.7933    0.6083 H         1 <0>         0.1292
     43 H11       -10.7683   -7.1272   -0.3346 H         1 <0>         0.2002
     44 H12        -7.2987   -9.8912    0.4571 H         1 <0>         0.4059
     45 H13        -5.3331  -10.3999   -0.5526 H         1 <0>         0.1006
     46 H14        -5.5404   -8.9573   -1.5667 H         1 <0>         0.0664
     47 H15        -3.5247   -8.8964   -0.0820 H         1 <0>         0.1025
     48 H16        -4.6167   -8.9001    1.3161 H         1 <0>         0.0924
     49 H17        -6.4263   -4.1602    0.0315 H         1 <0>         0.4181
     50 H18        -7.9823   -3.5392   -0.0948 H         1 <0>         0.4083
@<TRIPOS>BOND
     1    1    6 ar
     2    1    2 ar
     3    1   33 1
     4    2    3 ar
     5    2   34 1
     6    3    4 ar
     7    3   29 1
     8    4    5 ar
     9    4   35 1
    10    5    6 ar
    11    5    7 1
    12    6   36 1
    13    7    8 am
    14    7   37 1
    15    8    9 2
    16    8   10 am
    17   10   11 1
    18   10   38 1
    19   11   16 ar
    20   11   12 ar
    21   12   13 ar
    22   12   39 1
    23   13   14 ar
    24   13   40 1
    25   14   15 ar
    26   14   17 1
    27   15   16 ar
    28   15   41 1
    29   16   42 1
    30   17   27 1
    31   17   18 2
    32   18   19 1
    33   19   24 ar
    34   19   20 ar
    35   20   21 ar
    36   20   28 1
    37   21   22 ar
    38   22   23 ar
    39   22   43 1
    40   23   24 ar
    41   24   25 1
    42   25   26 1
    43   25   44 1
    44   26   27 1
    45   26   45 1
    46   26   46 1
    47   27   47 1
    48   27   48 1
    49   28   49 1
    50   28   50 1
    51   29   30 1
    52   29   31 1
    53   29   32 1
@<TRIPOS>MOLECULE
CHEMBL231569
   59    62     0     0     0
SMALL
USER_CHARGES

@<TRIPOS>ATOM
      1 C1         -5.3406   -5.2339    4.4530 C.3       1 <0>         0.0843
      2 N1         -4.1028   -4.4577    4.3455 N.am      1 <0>        -0.7122
      3 C2         -2.9289   -5.0865    4.1381 C.2       1 <0>         0.5699
      4 O1         -2.8973   -6.2973    4.0403 O.2       1 <0>        -0.5312
      5 C3         -1.6769   -4.3014    4.0294 C.ar      1 <0>         0.1145
      6 C4         -0.4697   -4.9565    3.8096 C.ar      1 <0>        -0.1889
      7 C5          0.6979   -4.2040    3.7099 C.ar      1 <0>         0.1563
      8 C6          0.6059   -2.8203    3.8351 C.ar      1 <0>        -0.1714
      9 C7         -0.6312   -2.2415    4.0528 C.ar      1 <0>         0.1375
     10 N2         -1.7185   -2.9785    4.1372 N.ar      1 <0>        -0.4782
     11 O2          1.8961   -4.8047    3.4962 O.3       1 <0>        -0.2393
     12 C8          1.9343   -6.1636    3.4761 C.ar      1 <0>         0.0882
     13 C9          1.4804   -6.8528    2.3562 C.ar      1 <0>        -0.1098
     14 C10         1.5140   -8.2317    2.3238 C.ar      1 <0>        -0.0600
     15 C11         2.0021   -8.9380    3.4112 C.ar      1 <0>         0.0065
     16 C12         2.4615   -8.2494    4.5438 C.ar      1 <0>         0.0683
     17 C13         2.4293   -6.8545    4.5662 C.ar      1 <0>        -0.0670
     18 N3          2.8732   -9.1936    5.4338 N.2       1 <0>        -0.5044
     19 C14         2.6886  -10.3768    4.9062 C.2       1 <0>         0.4905
     20 O3          2.1599  -10.2562    3.6758 O.3       1 <0>        -0.2170
     21 N4          2.9923  -11.5716    5.5213 N.pl3     1 <0>        -0.6095
     22 C15         2.8833  -12.7715    4.8109 C.ar      1 <0>         0.2119
     23 C16         3.0297  -12.7774    3.4293 C.ar      1 <0>        -0.1606
     24 C17         2.9216  -13.9622    2.7274 C.ar      1 <0>        -0.0315
     25 C18         2.6674  -15.1449    3.3975 C.ar      1 <0>        -0.0835
     26 C19         2.5206  -15.1446    4.7783 C.ar      1 <0>         0.1600
     27 C20         2.6342  -13.9584    5.4859 C.ar      1 <0>        -0.2269
     28 O4          2.2703  -16.3075    5.4359 O.3       1 <0>        -0.3138
     29 C21         2.1309  -16.2327    6.8561 C.3       1 <0>         0.0209
     30 C22         1.8547  -17.6296    7.4157 C.3       1 <0>        -0.0012
     31 N5          3.0176  -18.4934    7.1721 N.4       1 <0>        -0.3899
     32 C23         4.1611  -18.0080    7.9562 C.3       1 <0>        -0.0545
     33 C24         2.6978  -19.8699    7.5733 C.3       1 <0>        -0.0477
     34 Cl1         2.5311  -16.6315    2.5114 Cl        1 <0>        -0.0462
     35 H1         -5.2625   -5.9283    5.2895 H         1 <0>         0.0626
     36 H2         -6.1799   -4.5583    4.6188 H         1 <0>         0.0817
     37 H3         -5.5005   -5.7924    3.5308 H         1 <0>         0.0636
     38 H4         -4.1281   -3.4912    4.4236 H         1 <0>         0.4150
     39 H5         -0.4382   -6.0321    3.7181 H         1 <0>         0.1530
     40 H6          1.4910   -2.2057    3.7635 H         1 <0>         0.1549
     41 H7         -0.7068   -1.1686    4.1509 H         1 <0>         0.1772
     42 H8          1.0990   -6.3051    1.5071 H         1 <0>         0.1534
     43 H9          1.1596   -8.7604    1.4512 H         1 <0>         0.1493
     44 H10         2.7853   -6.3175    5.4329 H         1 <0>         0.1503
     45 H11         3.2818  -11.5807    6.4471 H         1 <0>         0.4448
     46 H12         3.2279  -11.8550    2.9037 H         1 <0>         0.1477
     47 H13         3.0354  -13.9648    1.6534 H         1 <0>         0.1545
     48 H14         2.5245  -13.9568    6.5604 H         1 <0>         0.1448
     49 H15         3.0507  -15.8422    7.2914 H         1 <0>         0.0905
     50 H16         1.3014  -15.5709    7.1054 H         1 <0>         0.1130
     51 H17         1.6709  -17.5616    8.4880 H         1 <0>         0.1516
     52 H18         0.9789  -18.0518    6.9230 H         1 <0>         0.1445
     53 H19         3.9093  -18.0281    9.0165 H         1 <0>         0.1252
     54 H20         5.0240  -18.6489    7.7754 H         1 <0>         0.1280
     55 H21         4.3984  -16.9866    7.6585 H         1 <0>         0.1208
     56 H22         1.9075  -20.2608    6.9325 H         1 <0>         0.1254
     57 H23         3.5868  -20.4929    7.4750 H         1 <0>         0.1264
     58 H24         2.3618  -19.8773    8.6102 H         1 <0>         0.1235
     59 H25         3.2507  -18.4748    6.1906 H         1 <0>         0.4345
@<TRIPOS>BOND
     1    1    2 1
     2    1   35 1
     3    1   36 1
     4    1   37 1
     5    2    3 am
     6    2   38 1
     7    3    4 2
     8    3    5 1
     9    5   10 ar
    10    5    6 ar
    11    6    7 ar
    12    6   39 1
    13    7    8 ar
    14    7   11 1
    15    8    9 ar
    16    8   40 1
    17    9   10 ar
    18    9   41 1
    19   11   12 1
    20   12   17 ar
    21   12   13 ar
    22   13   14 ar
    23   13   42 1
    24   14   15 ar
    25   14   43 1
    26   15   20 1
    27   15   16 ar
    28   16   17 ar
    29   16   18 1
    30   17   44 1
    31   18   19 2
    32   19   20 1
    33   19   21 1
    34   21   22 1
    35   21   45 1
    36   22   27 ar
    37   22   23 ar
    38   23   24 ar
    39   23   46 1
    40   24   25 ar
    41   24   47 1
    42   25   26 ar
    43   25   34 1
    44   26   27 ar
    45   26   28 1
    46   27   48 1
    47   28   29 1
    48   29   30 1
    49   29   49 1
    50   29   50 1
    51   30   31 1
    52   30   51 1
    53   30   52 1
    54   31   32 1
    55   31   33 1
    56   31   59 1
    57   32   53 1
    58   32   54 1
    59   32   55 1
    60   33   56 1
    61   33   57 1
    62   33   58 1
@<TRIPOS>MOLECULE
CHEMBL198862
   71    75     0     0     0
SMALL
USER_CHARGES

@<TRIPOS>ATOM
      1 C1          1.6115    1.4861    0.1917 C.3       1 <0>         0.0193
      2 O1          1.6349    0.0574    0.1748 O.3       1 <0>        -0.2998
      3 C2          2.0129   -0.5670    1.3209 C.ar      1 <0>         0.1229
      4 C3          2.3422    0.1777    2.4194 C.ar      1 <0>        -0.1483
      5 C4          2.7307   -0.4662    3.5975 C.ar      1 <0>        -0.1516
      6 C5          2.7803   -1.8847    3.6442 C.ar      1 <0>         0.1892
      7 C6          2.4373   -2.6232    2.5027 C.ar      1 <0>        -0.1761
      8 C7          2.0554   -1.9694    1.3655 C.ar      1 <0>         0.1632
      9 O2          1.7175   -2.6857    0.2619 O.3       1 <0>        -0.2930
     10 C8          1.7802   -4.1093    0.3682 C.3       1 <0>         0.0553
     11 C9          1.3676   -4.7389   -0.9638 C.3       1 <0>        -0.1486
     12 C10         1.4347   -6.2631   -0.8500 C.3       1 <0>        -0.0019
     13 N1          1.0386   -6.8676   -2.1290 N.4       1 <0>        -0.3935
     14 C11         2.0650   -6.5902   -3.1662 C.3       1 <0>        -0.0093
     15 C12         1.8193   -7.7040   -4.2148 C.3       1 <0>        -0.1458
     16 C13         1.4613   -8.9283   -3.3413 C.3       1 <0>        -0.1456
     17 C14         0.9820   -8.3400   -2.0014 C.3       1 <0>        -0.0082
     18 N2          3.1551   -2.4775    4.7841 N.ar      1 <0>        -0.5133
     19 C15         3.4705   -1.7600    5.8380 C.ar      1 <0>         0.3268
     20 N3          3.4407   -0.4397    5.8466 N.ar      1 <0>        -0.5293
     21 C16         3.0829    0.2540    4.7682 C.ar      1 <0>         0.3718
     22 N4          3.0558    1.6145    4.7880 N.2       1 <0>        -0.3907
     23 C17         1.9491    2.2398    5.0739 C.2       1 <0>         0.1756
     24 C18         0.6958    1.5020    5.5166 C.3       1 <0>        -0.1620
     25 C19         0.1949    2.1940    6.7665 C.2       1 <0>         0.4095
     26 C20         0.2363    3.6670    6.8448 C.2       1 <0>         0.1158
     27 C21         1.0200    4.3954    6.0121 C.2       1 <0>        -0.2869
     28 C22         1.8349    3.7226    4.9932 C.2       1 <0>         0.4436
     29 O3          2.3924    4.3540    4.1152 O.2       1 <0>        -0.3946
     30 O4         -0.5235    4.3035    7.7659 O.3       1 <0>        -0.2636
     31 C23        -0.5331    5.7318    7.7240 C.3       1 <0>         0.2442
     32 C24         0.6289    6.2523    8.4626 C.1       1 <0>        -0.2438
     33 C25         1.5557    6.6673    9.0518 C.1       1 <0>        -0.1228
     34 C26        -1.8012    6.2445    8.3566 C.ar      1 <0>        -0.0987
     35 C27        -2.2954    5.6437    9.4993 C.ar      1 <0>        -0.0845
     36 C28        -3.4586    6.1139   10.0796 C.ar      1 <0>        -0.1202
     37 C29        -4.1273    7.1852    9.5175 C.ar      1 <0>        -0.1042
     38 C30        -3.6327    7.7865    8.3754 C.ar      1 <0>        -0.1190
     39 C31        -2.4672    7.3191    7.7975 C.ar      1 <0>        -0.0979
     40 O5         -0.2352    1.5462    7.6913 O.2       1 <0>        -0.3797
     41 H1          2.6094    1.8632    0.4153 H         1 <0>         0.0640
     42 H2          1.2933    1.8559   -0.7830 H         1 <0>         0.1115
     43 H3          0.9139    1.8290    0.9558 H         1 <0>         0.0603
     44 H4          2.3026    1.2562    2.3769 H         1 <0>         0.1514
     45 H5          2.4705   -3.7025    2.5237 H         1 <0>         0.1562
     46 H6          2.7987   -4.4110    0.6127 H         1 <0>         0.0784
     47 H7          1.1033   -4.4451    1.1539 H         1 <0>         0.0790
     48 H8          0.3491   -4.4372   -1.2083 H         1 <0>         0.1006
     49 H9          2.0445   -4.4031   -1.7495 H         1 <0>         0.0999
     50 H10         2.4532   -6.5648   -0.6056 H         1 <0>         0.1340
     51 H11         0.7579   -6.5990   -0.0644 H         1 <0>         0.1348
     52 H12         1.9098   -5.6056   -3.6073 H         1 <0>         0.1366
     53 H13         3.0677   -6.6713   -2.7466 H         1 <0>         0.1348
     54 H14         0.9884   -7.4410   -4.8694 H         1 <0>         0.0986
     55 H15         2.7228   -7.8944   -4.7941 H         1 <0>         0.1171
     56 H16         0.6633   -9.5057   -3.8081 H         1 <0>         0.1057
     57 H17         2.3410   -9.5532   -3.1870 H         1 <0>         0.1042
     58 H18         1.6385   -8.6684   -1.1956 H         1 <0>         0.1315
     59 H19        -0.0419   -8.6563   -1.8020 H         1 <0>         0.1333
     60 H20         3.7678   -2.2739    6.7402 H         1 <0>         0.2076
     61 H21        -0.0616    1.5525    4.7344 H         1 <0>         0.1527
     62 H22         1.0472    5.4714    6.1009 H         1 <0>         0.1697
     63 H23        -0.4837    6.0652    6.6874 H         1 <0>         0.1134
     64 H24         2.3846    7.0386    9.5787 H         1 <0>         0.2273
     65 H25        -1.7729    4.8067    9.9385 H         1 <0>         0.1285
     66 H26        -3.8450    5.6440   10.9720 H         1 <0>         0.1285
     67 H27        -5.0365    7.5521    9.9705 H         1 <0>         0.1278
     68 H28        -4.1554    8.6233    7.9360 H         1 <0>         0.1300
     69 H29        -2.0787    7.7913    6.9072 H         1 <0>         0.1277
     70 H30         0.9347    0.4614    5.7362 H         1 <0>         0.1222
     71 H31         0.1418   -6.5089   -2.4208 H         1 <0>         0.4284
@<TRIPOS>BOND
     1    1    2 1
     2    1   41 1
     3    1   42 1
     4    1   43 1
     5    2    3 1
     6    3    8 ar
     7    3    4 ar
     8    4    5 ar
     9    4   44 1
    10    5   21 ar
    11    5    6 ar
    12    6    7 ar
    13    6   18 ar
    14    7    8 ar
    15    7   45 1
    16    8    9 1
    17    9   10 1
    18   10   11 1
    19   10   46 1
    20   10   47 1
    21   11   12 1
    22   11   48 1
    23   11   49 1
    24   12   13 1
    25   12   50 1
    26   12   51 1
    27   13   17 1
    28   13   14 1
    29   13   71 1
    30   14   15 1
    31   14   52 1
    32   14   53 1
    33   15   16 1
    34   15   54 1
    35   15   55 1
    36   16   17 1
    37   16   56 1
    38   16   57 1
    39   17   58 1
    40   17   59 1
    41   18   19 ar
    42   19   20 ar
    43   19   60 1
    44   20   21 ar
    45   21   22 1
    46   22   23 2
    47   23   28 1
    48   23   24 1
    49   24   61 1
    50   24   70 1
    51   24   25 1
    52   25   40 2
    53   25   26 1
    54   26   30 1
    55   26   27 2
    56   27   28 1
    57   27   62 1
    58   28   29 2
    59   30   31 1
    60   31   32 1
    61   31   34 1
    62   31   63 1
    63   32   33 3
    64   33   64 1
    65   34   39 ar
    66   34   35 ar
    67   35   36 ar
    68   35   65 1
    69   36   37 ar
    70   36   66 1
    71   37   38 ar
    72   37   67 1
    73   38   39 ar
    74   38   68 1
    75   39   69 1
@<TRIPOS>MOLECULE
CHEMBL198862__1
   71    75     0     0     0
SMALL
USER_CHARGES

@<TRIPOS>ATOM
      1 C1         -0.5523    1.9982   -0.5663 C.3       1 <0>         0.0204
      2 O1         -0.6603    0.5917   -0.7947 O.3       1 <0>        -0.2990
      3 C2         -0.0180   -0.2264    0.0796 C.ar      1 <0>         0.1219
      4 C3          0.6841    0.3147    1.1207 C.ar      1 <0>        -0.1502
      5 C4          1.3442   -0.5283    2.0191 C.ar      1 <0>        -0.1520
      6 C5          1.2807   -1.9362    1.8440 C.ar      1 <0>         0.1896
      7 C6          0.5534   -2.4636    0.7675 C.ar      1 <0>        -0.1743
      8 C7         -0.0875   -1.6178   -0.0930 C.ar      1 <0>         0.1601
      9 O2         -0.7967   -2.1297   -1.1322 O.3       1 <0>        -0.2934
     10 C8         -0.8307   -3.5530   -1.2559 C.3       1 <0>         0.0552
     11 C9         -1.6707   -3.9390   -2.4750 C.3       1 <0>        -0.1482
     12 C10        -1.7072   -5.4629   -2.6074 C.3       1 <0>        -0.0021
     13 N1         -2.5137   -5.8335   -3.7779 N.4       1 <0>        -0.3934
     14 C11        -1.8179   -5.4318   -5.0272 C.3       1 <0>        -0.0093
     15 C12        -2.4581   -6.3484   -6.0999 C.3       1 <0>        -0.1457
     16 C13        -2.6491   -7.6836   -5.3445 C.3       1 <0>        -0.1455
     17 C14        -2.6592   -7.3035   -3.8522 C.3       1 <0>        -0.0083
     18 N2          1.9209   -2.7220    2.7180 N.ar      1 <0>        -0.5152
     19 C15         2.5942   -2.1999    3.7174 C.ar      1 <0>         0.3300
     20 N3          2.6843   -0.8986    3.9244 N.ar      1 <0>        -0.5116
     21 C16         2.0872   -0.0241    3.1177 C.ar      1 <0>         0.3724
     22 N4          2.1866    1.3148    3.3402 N.2       1 <0>        -0.3925
     23 C17         1.2639    1.9321    4.0221 C.2       1 <0>         0.1746
     24 C18         1.2538    3.4439    4.1829 C.3       1 <0>        -0.1089
     25 C19        -0.1430    3.9149    3.8379 C.2       1 <0>         0.4038
     26 C20        -1.3057    3.1284    4.2931 C.2       1 <0>         0.1121
     27 C21        -1.1729    1.8382    4.6878 C.2       1 <0>        -0.2917
     28 C22         0.1497    1.2013    4.6874 C.2       1 <0>         0.3856
     29 O3          0.3273    0.1190    5.2140 O.2       1 <0>        -0.3979
     30 O4         -2.5287    3.7067    4.3175 O.3       1 <0>        -0.2626
     31 C23        -3.5984    2.9389    4.8727 C.3       1 <0>         0.2417
     32 C24        -4.1454    2.0421    3.8416 C.1       1 <0>        -0.2303
     33 C25        -4.5817    1.3268    3.0192 C.1       1 <0>        -0.1364
     34 C26        -4.6826    3.8660    5.3587 C.ar      1 <0>        -0.1000
     35 C27        -5.0254    4.9790    4.6141 C.ar      1 <0>        -0.0842
     36 C28        -6.0199    5.8294    5.0599 C.ar      1 <0>        -0.1198
     37 C29        -6.6719    5.5664    6.2501 C.ar      1 <0>        -0.1030
     38 C30        -6.3297    4.4529    6.9943 C.ar      1 <0>        -0.1181
     39 C31        -5.3382    3.6002    6.5464 C.ar      1 <0>        -0.0980
     40 O5         -0.3043    4.9257    3.1959 O.2       1 <0>        -0.3778
     41 H1          0.4963    2.2932   -0.6055 H         1 <0>         0.0630
     42 H2         -1.1096    2.5349   -1.3340 H         1 <0>         0.1119
     43 H3         -0.9611    2.2394    0.4150 H         1 <0>         0.0567
     44 H4          0.7286    1.3863    1.2477 H         1 <0>         0.1458
     45 H5          0.4964   -3.5323    0.6220 H         1 <0>         0.1556
     46 H6          0.1840   -3.9313   -1.3792 H         1 <0>         0.0783
     47 H7         -1.2730   -3.9852   -0.3583 H         1 <0>         0.0783
     48 H8         -2.6855   -3.5607   -2.3516 H         1 <0>         0.1001
     49 H9         -1.2284   -3.5068   -3.3726 H         1 <0>         0.1000
     50 H10        -0.6924   -5.8412   -2.7308 H         1 <0>         0.1342
     51 H11        -2.1494   -5.8951   -1.7098 H         1 <0>         0.1347
     52 H12        -2.0090   -4.3829   -5.2538 H         1 <0>         0.1365
     53 H13        -0.7473   -5.6208   -4.9491 H         1 <0>         0.1348
     54 H14        -3.4185   -5.9486   -6.4254 H         1 <0>         0.0985
     55 H15        -1.7856   -6.4777   -6.9479 H         1 <0>         0.1172
     56 H16        -3.5966   -8.1443   -5.6239 H         1 <0>         0.1057
     57 H17        -1.8213   -8.3602   -5.5569 H         1 <0>         0.1043
     58 H18        -1.8260   -7.7854   -3.3406 H         1 <0>         0.1316
     59 H19        -3.6026   -7.6066   -3.3982 H         1 <0>         0.1332
     60 H20         3.0977   -2.8660    4.4025 H         1 <0>         0.2058
     61 H21         1.4925    3.7101    5.2126 H         1 <0>         0.1577
     62 H22        -2.0418    1.2775    4.9995 H         1 <0>         0.1616
     63 H23        -3.2251    2.3469    5.7083 H         1 <0>         0.1126
     64 H24        -4.9719    0.6871    2.2837 H         1 <0>         0.2242
     65 H25        -4.5160    5.1844    3.6842 H         1 <0>         0.1283
     66 H26        -6.2872    6.6993    4.4784 H         1 <0>         0.1291
     67 H27        -7.4484    6.2312    6.5987 H         1 <0>         0.1286
     68 H28        -6.8389    4.2477    7.9243 H         1 <0>         0.1304
     69 H29        -5.0734    2.7282    7.1259 H         1 <0>         0.1269
     70 H30         1.9782    3.8950    3.5048 H         1 <0>         0.1480
     71 H31        -3.4215   -5.3961   -3.7281 H         1 <0>         0.4282
@<TRIPOS>BOND
     1    1    2 1
     2    1   41 1
     3    1   42 1
     4    1   43 1
     5    2    3 1
     6    3    8 ar
     7    3    4 ar
     8    4    5 ar
     9    4   44 1
    10    5   21 ar
    11    5    6 ar
    12    6    7 ar
    13    6   18 ar
    14    7    8 ar
    15    7   45 1
    16    8    9 1
    17    9   10 1
    18   10   11 1
    19   10   46 1
    20   10   47 1
    21   11   12 1
    22   11   48 1
    23   11   49 1
    24   12   13 1
    25   12   50 1
    26   12   51 1
    27   13   17 1
    28   13   14 1
    29   13   71 1
    30   14   15 1
    31   14   52 1
    32   14   53 1
    33   15   16 1
    34   15   54 1
    35   15   55 1
    36   16   17 1
    37   16   56 1
    38   16   57 1
    39   17   58 1
    40   17   59 1
    41   18   19 ar
    42   19   20 ar
    43   19   60 1
    44   20   21 ar
    45   21   22 1
    46   22   23 2
    47   23   28 1
    48   23   24 1
    49   24   61 1
    50   24   70 1
    51   24   25 1
    52   25   40 2
    53   25   26 1
    54   26   30 1
    55   26   27 2
    56   27   28 1
    57   27   62 1
    58   28   29 2
    59   30   31 1
    60   31   32 1
    61   31   34 1
    62   31   63 1
    63   32   33 3
    64   33   64 1
    65   34   39 ar
    66   34   35 ar
    67   35   36 ar
    68   35   65 1
    69   36   37 ar
    70   36   66 1
    71   37   38 ar
    72   37   67 1
    73   38   39 ar
    74   38   68 1
    75   39   69 1
@<TRIPOS>MOLECULE
CHEMBL198862__2
   71    75     0     0     0
SMALL
USER_CHARGES

@<TRIPOS>ATOM
      1 C1         -0.1687    1.0411    0.0142 C.3       1 <0>         0.0194
      2 O1          0.0405   -0.3714    0.0688 O.3       1 <0>        -0.2999
      3 C2          0.7819   -0.8457    1.1040 C.ar      1 <0>         0.1225
      4 C3          1.2813    0.0250    2.0325 C.ar      1 <0>        -0.1476
      5 C4          2.0437   -0.4645    3.0967 C.ar      1 <0>        -0.1504
      6 C5          2.2930   -1.8585    3.2049 C.ar      1 <0>         0.1892
      7 C6          1.7685   -2.7284    2.2384 C.ar      1 <0>        -0.1764
      8 C7          1.0217   -2.2247    1.2113 C.ar      1 <0>         0.1634
      9 O2          0.5090   -3.0687    0.2787 O.3       1 <0>        -0.2930
     10 C8          0.7868   -4.4610    0.4410 C.3       1 <0>         0.0553
     11 C9          0.1320   -5.2478   -0.6961 C.3       1 <0>        -0.1486
     12 C10         0.4294   -6.7385   -0.5222 C.3       1 <0>        -0.0019
     13 N1         -0.1993   -7.4938   -1.6141 N.4       1 <0>        -0.3935
     14 C11         0.4774   -7.1923   -2.9015 C.3       1 <0>        -0.0093
     15 C12         0.1202   -8.4144   -3.7844 C.3       1 <0>        -0.1457
     16 C13         0.1674   -9.5905   -2.7822 C.3       1 <0>        -0.1456
     17 C14        -0.0235   -8.9462   -1.3967 C.3       1 <0>        -0.0082
     18 N2          3.0255   -2.3024    4.2334 N.ar      1 <0>        -0.5133
     19 C15         3.5037   -1.4641    5.1242 C.ar      1 <0>         0.3266
     20 N3          3.3009   -0.1602    5.0691 N.ar      1 <0>        -0.5303
     21 C16         2.5870    0.3908    4.0899 C.ar      1 <0>         0.3718
     22 N4          2.3842    1.7357    4.0428 N.2       1 <0>        -0.3912
     23 C17         1.3303    2.2557    4.6053 C.2       1 <0>         0.1759
     24 C18         0.3803    1.4305    5.4586 C.3       1 <0>        -0.1621
     25 C19         0.1701    2.1942    6.7488 C.2       1 <0>         0.4098
     26 C20         0.0191    3.6614    6.7057 C.2       1 <0>         0.1154
     27 C21         0.4129    4.3790    5.6248 C.2       1 <0>        -0.2861
     28 C22         0.9845    3.6968    4.4576 C.2       1 <0>         0.4437
     29 O3          1.1651    4.2873    3.4092 O.2       1 <0>        -0.3944
     30 O4         -0.5235    4.3035    7.7659 O.3       1 <0>        -0.2637
     31 C23        -0.5331    5.7318    7.7240 C.3       1 <0>         0.2434
     32 C24        -1.7018    6.1923    6.9565 C.1       1 <0>        -0.2390
     33 C25        -2.6338    6.5595    6.3443 C.1       1 <0>        -0.1266
     34 C26        -0.6082    6.2752    9.1276 C.ar      1 <0>        -0.0987
     35 C27        -1.3340    5.6010   10.0918 C.ar      1 <0>        -0.0853
     36 C28        -1.4028    6.0994   11.3793 C.ar      1 <0>        -0.1200
     37 C29        -0.7455    7.2716   11.7028 C.ar      1 <0>        -0.1045
     38 C30        -0.0189    7.9453   10.7388 C.ar      1 <0>        -0.1181
     39 C31         0.0534    7.4446    9.4524 C.ar      1 <0>        -0.0983
     40 O5          0.1260    1.6075    7.8042 O.2       1 <0>        -0.3791
     41 H1          0.7934    1.5483   -0.0580 H         1 <0>         0.0641
     42 H2         -0.7745    1.2853   -0.8584 H         1 <0>         0.1114
     43 H3         -0.6844    1.3672    0.9174 H         1 <0>         0.0602
     44 H4          1.0882    1.0839    1.9440 H         1 <0>         0.1518
     45 H5          1.9500   -3.7908    2.3080 H         1 <0>         0.1561
     46 H6          1.8648   -4.6213    0.4200 H         1 <0>         0.0784
     47 H7          0.3873   -4.8023    1.3961 H         1 <0>         0.0790
     48 H8         -0.9460   -5.0875   -0.6751 H         1 <0>         0.1005
     49 H9          0.5315   -4.9065   -1.6511 H         1 <0>         0.1000
     50 H10         1.5074   -6.8987   -0.5433 H         1 <0>         0.1340
     51 H11         0.0299   -7.0797    0.4328 H         1 <0>         0.1349
     52 H12         0.0832   -6.2743   -3.3375 H         1 <0>         0.1365
     53 H13         1.5560   -7.1208   -2.7616 H         1 <0>         0.1348
     54 H14        -0.8791   -8.3067   -4.2061 H         1 <0>         0.0986
     55 H15         0.8603   -8.5498   -4.5731 H         1 <0>         0.1172
     56 H16        -0.6395  -10.2943   -2.9866 H         1 <0>         0.1057
     57 H17         1.1324  -10.0944   -2.8354 H         1 <0>         0.1043
     58 H18         0.8567   -9.1254   -0.7793 H         1 <0>         0.1316
     59 H19        -0.9092   -9.3592   -0.9139 H         1 <0>         0.1333
     60 H20         4.0901   -1.8596    5.9403 H         1 <0>         0.2075
     61 H21        -0.5708    1.3051    4.9413 H         1 <0>         0.1517
     62 H22         0.3089    5.4540    5.6243 H         1 <0>         0.1695
     63 H23         0.3792    6.0874    7.2450 H         1 <0>         0.1129
     64 H24        -3.4674    6.8880    5.7969 H         1 <0>         0.2270
     65 H25        -1.8475    4.6852    9.8391 H         1 <0>         0.1285
     66 H26        -1.9705    5.5731   12.1325 H         1 <0>         0.1283
     67 H27        -0.7998    7.6614   12.7086 H         1 <0>         0.1279
     68 H28         0.4944    8.8613   10.9915 H         1 <0>         0.1302
     69 H29         0.6241    7.9690    8.7002 H         1 <0>         0.1274
     70 H30         0.8205    0.4558    5.6690 H         1 <0>         0.1230
     71 H31        -1.1807   -7.2673   -1.6743 H         1 <0>         0.4284
@<TRIPOS>BOND
     1    1    2 1
     2    1   41 1
     3    1   42 1
     4    1   43 1
     5    2    3 1
     6    3    8 ar
     7    3    4 ar
     8    4    5 ar
     9    4   44 1
    10    5   21 ar
    11    5    6 ar
    12    6    7 ar
    13    6   18 ar
    14    7    8 ar
    15    7   45 1
    16    8    9 1
    17    9   10 1
    18   10   11 1
    19   10   46 1
    20   10   47 1
    21   11   12 1
    22   11   48 1
    23   11   49 1
    24   12   13 1
    25   12   50 1
    26   12   51 1
    27   13   17 1
    28   13   14 1
    29   13   71 1
    30   14   15 1
    31   14   52 1
    32   14   53 1
    33   15   16 1
    34   15   54 1
    35   15   55 1
    36   16   17 1
    37   16   56 1
    38   16   57 1
    39   17   58 1
    40   17   59 1
    41   18   19 ar
    42   19   20 ar
    43   19   60 1
    44   20   21 ar
    45   21   22 1
    46   22   23 2
    47   23   28 1
    48   23   24 1
    49   24   61 1
    50   24   70 1
    51   24   25 1
    52   25   40 2
    53   25   26 1
    54   26   30 1
    55   26   27 2
    56   27   28 1
    57   27   62 1
    58   28   29 2
    59   30   31 1
    60   31   32 1
    61   31   34 1
    62   31   63 1
    63   32   33 3
    64   33   64 1
    65   34   39 ar
    66   34   35 ar
    67   35   36 ar
    68   35   65 1
    69   36   37 ar
    70   36   66 1
    71   37   38 ar
    72   37   67 1
    73   38   39 ar
    74   38   68 1
    75   39   69 1
@<TRIPOS>MOLECULE
CHEMBL198862__3
   71    75     0     0     0
SMALL
USER_CHARGES

@<TRIPOS>ATOM
      1 C1         -0.0854    0.7608    0.2371 C.3       1 <0>         0.0201
      2 O1         -0.1091   -0.6522    0.4492 O.3       1 <0>        -0.2990
      3 C2          0.5014   -1.1180    1.5702 C.ar      1 <0>         0.1219
      4 C3          1.0943   -0.2378    2.4324 C.ar      1 <0>        -0.1505
      5 C4          1.7217   -0.7186    3.5851 C.ar      1 <0>        -0.1515
      6 C5          1.7384   -2.1136    3.8509 C.ar      1 <0>         0.1892
      7 C6          1.1225   -2.9934    2.9494 C.ar      1 <0>        -0.1743
      8 C7          0.5111   -2.4969    1.8331 C.ar      1 <0>         0.1601
      9 O2         -0.0905   -3.3493    0.9632 O.3       1 <0>        -0.2933
     10 C8         -0.0477   -4.7411    1.2844 C.3       1 <0>         0.0553
     11 C9         -0.7715   -5.5379    0.1971 C.3       1 <0>        -0.1484
     12 C10        -0.7257   -7.0280    0.5409 C.3       1 <0>        -0.0020
     13 N1         -1.4206   -7.7930   -0.5030 N.4       1 <0>        -0.3935
     14 C11        -0.6498   -7.7453   -1.7718 C.3       1 <0>        -0.0093
     15 C12        -1.1610   -8.9874   -2.5441 C.3       1 <0>        -0.1457
     16 C13        -1.3468  -10.0379   -1.4251 C.3       1 <0>        -0.1456
     17 C14        -1.4905   -9.2218   -0.1272 C.3       1 <0>        -0.0082
     18 N2          2.3452   -2.5490    4.9616 N.ar      1 <0>        -0.5151
     19 C15         2.9137   -1.7015    5.7884 C.ar      1 <0>         0.3298
     20 N3          2.9260   -0.3963    5.5873 N.ar      1 <0>        -0.5113
     21 C16         2.3527    0.1468    4.5157 C.ar      1 <0>         0.3714
     22 N4          2.3714    1.4932    4.3183 N.2       1 <0>        -0.3927
     23 C17         1.3771    2.2262    4.7328 C.2       1 <0>         0.1748
     24 C18         1.2647    3.7030    4.3897 C.3       1 <0>        -0.1092
     25 C19        -0.1384    3.9290    3.8679 C.2       1 <0>         0.4042
     26 C20        -1.2725    3.2466    4.5203 C.2       1 <0>         0.1116
     27 C21        -1.0810    2.1681    5.3193 C.2       1 <0>        -0.2905
     28 C22         0.2767    1.6681    5.5669 C.2       1 <0>         0.3851
     29 O3          0.4930    0.8317    6.4237 O.2       1 <0>        -0.3966
     30 O4         -2.5287    3.7067    4.3175 O.3       1 <0>        -0.2636
     31 C23        -3.5984    2.9389    4.8727 C.3       1 <0>         0.2457
     32 C24        -3.7859    3.3085    6.2852 C.1       1 <0>        -0.2447
     33 C25        -3.9355    3.6032    7.4117 C.1       1 <0>        -0.1212
     34 C26        -4.8666    3.2177    4.1079 C.ar      1 <0>        -0.0976
     35 C27        -5.1050    4.4820    3.6023 C.ar      1 <0>        -0.0838
     36 C28        -6.2683    4.7377    2.9007 C.ar      1 <0>        -0.1182
     37 C29        -7.1930    3.7291    2.7043 C.ar      1 <0>        -0.1048
     38 C30        -6.9541    2.4646    3.2092 C.ar      1 <0>        -0.1193
     39 C31        -5.7888    2.2077    3.9071 C.ar      1 <0>        -0.1006
     40 O5         -0.3279    4.6617    2.9260 O.2       1 <0>        -0.3777
     41 H1          0.9480    1.1010    0.1707 H         1 <0>         0.0632
     42 H2         -0.6062    0.9977   -0.6907 H         1 <0>         0.1122
     43 H3         -0.5800    1.2614    1.0694 H         1 <0>         0.0571
     44 H4          1.0783    0.8218    2.2240 H         1 <0>         0.1467
     45 H5          1.1274   -4.0566    3.1387 H         1 <0>         0.1556
     46 H6          0.9903   -5.0684    1.3445 H         1 <0>         0.0783
     47 H7         -0.5374   -4.9078    2.2438 H         1 <0>         0.0784
     48 H8         -1.8094   -5.2106    0.1369 H         1 <0>         0.1003
     49 H9         -0.2818   -5.3712   -0.7624 H         1 <0>         0.1000
     50 H10         0.3123   -7.3553    0.6011 H         1 <0>         0.1342
     51 H11        -1.2154   -7.1947    1.5003 H         1 <0>         0.1347
     52 H12        -0.8720   -6.8315   -2.3228 H         1 <0>         0.1365
     53 H13         0.4193   -7.8273   -1.5757 H         1 <0>         0.1348
     54 H14        -2.1110   -8.7732   -3.0336 H         1 <0>         0.0985
     55 H15        -0.4194   -9.3231   -3.2689 H         1 <0>         0.1172
     56 H16        -2.2470  -10.6259   -1.6039 H         1 <0>         0.1057
     57 H17        -0.4741  -10.6885   -1.3683 H         1 <0>         0.1043
     58 H18        -0.6778   -9.4660    0.5569 H         1 <0>         0.1316
     59 H19        -2.4510   -9.4358    0.3417 H         1 <0>         0.1332
     60 H20         3.3932   -2.0903    6.6746 H         1 <0>         0.2056
     61 H21         1.4313    4.3061    5.2823 H         1 <0>         0.1568
     62 H22        -1.9287    1.6744    5.7711 H         1 <0>         0.1615
     63 H23        -3.3581    1.8780    4.8036 H         1 <0>         0.1077
     64 H24        -4.0693    3.8669    8.4192 H         1 <0>         0.2277
     65 H25        -4.3826    5.2700    3.7557 H         1 <0>         0.1304
     66 H26        -6.4549    5.7256    2.5062 H         1 <0>         0.1297
     67 H27        -8.1021    3.9290    2.1568 H         1 <0>         0.1280
     68 H28        -7.6766    1.6766    3.0560 H         1 <0>         0.1285
     69 H29        -5.6004    1.2189    4.2983 H         1 <0>         0.1244
     70 H30         1.9946    3.9636    3.6233 H         1 <0>         0.1480
     71 H31        -2.3492   -7.4247   -0.6449 H         1 <0>         0.4283
@<TRIPOS>BOND
     1    1    2 1
     2    1   41 1
     3    1   42 1
     4    1   43 1
     5    2    3 1
     6    3    8 ar
     7    3    4 ar
     8    4    5 ar
     9    4   44 1
    10    5   21 ar
    11    5    6 ar
    12    6    7 ar
    13    6   18 ar
    14    7    8 ar
    15    7   45 1
    16    8    9 1
    17    9   10 1
    18   10   11 1
    19   10   46 1
    20   10   47 1
    21   11   12 1
    22   11   48 1
    23   11   49 1
    24   12   13 1
    25   12   50 1
    26   12   51 1
    27   13   17 1
    28   13   14 1
    29   13   71 1
    30   14   15 1
    31   14   52 1
    32   14   53 1
    33   15   16 1
    34   15   54 1
    35   15   55 1
    36   16   17 1
    37   16   56 1
    38   16   57 1
    39   17   58 1
    40   17   59 1
    41   18   19 ar
    42   19   20 ar
    43   19   60 1
    44   20   21 ar
    45   21   22 1
    46   22   23 2
    47   23   28 1
    48   23   24 1
    49   24   61 1
    50   24   70 1
    51   24   25 1
    52   25   40 2
    53   25   26 1
    54   26   30 1
    55   26   27 2
    56   27   28 1
    57   27   62 1
    58   28   29 2
    59   30   31 1
    60   31   32 1
    61   31   34 1
    62   31   63 1
    63   32   33 3
    64   33   64 1
    65   34   39 ar
    66   34   35 ar
    67   35   36 ar
    68   35   65 1
    69   36   37 ar
    70   36   66 1
    71   37   38 ar
    72   37   67 1
    73   38   39 ar
    74   38   68 1
    75   39   69 1
@<TRIPOS>MOLECULE
CHEMBL83279
   58    62     0     0     0
SMALL
USER_CHARGES

@<TRIPOS>ATOM
      1 C1         -0.4661    1.4990    0.8341 C.ar      1 <0>        -0.1105
      2 C2          0.7171    2.2099    0.7530 C.ar      1 <0>        -0.0985
      3 C3          1.9198    1.5409    0.6363 C.ar      1 <0>        -0.1162
      4 C4          1.9399    0.1530    0.6004 C.ar      1 <0>         0.1169
      5 C5          0.7501   -0.5581    0.6821 C.ar      1 <0>        -0.1167
      6 C6         -0.4494    0.1167    0.7987 C.ar      1 <0>        -0.0998
      7 N1          3.1583   -0.5286    0.4816 N.pl3     1 <0>        -0.4436
      8 C7          4.1366   -0.2811   -0.4341 C.2       1 <0>         0.2754
      9 N2          5.1314   -1.1009   -0.2581 N.2       1 <0>        -0.4867
     10 C8          4.8613   -1.9314    0.7823 C.ar      1 <0>         0.0514
     11 C9          3.5941   -1.5735    1.2757 C.ar      1 <0>         0.0547
     12 C10         3.0492   -2.2538    2.3564 C.ar      1 <0>        -0.0986
     13 C11         3.7439   -3.2717    2.9468 C.ar      1 <0>        -0.0918
     14 C12         5.0061   -3.6383    2.4705 C.ar      1 <0>        -0.0611
     15 C13         5.5639   -2.9752    1.3858 C.ar      1 <0>        -0.0486
     16 C14         5.7490   -4.7452    3.1218 C.ar      1 <0>        -0.0495
     17 C15         7.0101   -5.1101    2.6538 C.ar      1 <0>        -0.0726
     18 C16         7.6982   -6.1395    3.2612 C.ar      1 <0>        -0.1341
     19 C17         7.1358   -6.8122    4.3374 C.ar      1 <0>         0.1085
     20 C18         5.8799   -6.4510    4.8058 C.ar      1 <0>        -0.1968
     21 C19         5.1896   -5.4184    4.2064 C.ar      1 <0>        -0.0728
     22 O1          7.8158   -7.8266    4.9333 O.3       1 <0>        -0.3283
     23 C20         7.1783   -8.4756    6.0354 C.3       1 <0>         0.0256
     24 C21         8.0889   -9.5820    6.5718 C.3       1 <0>        -0.0009
     25 N3          9.3246   -8.9870    7.0981 N.4       1 <0>        -0.3841
     26 C22        10.2609  -10.0550    7.4686 C.3       1 <0>        -0.0069
     27 C23        11.5801   -9.4406    7.9415 C.3       1 <0>        -0.1468
     28 C24        11.3144   -8.5480    9.1572 C.3       1 <0>        -0.1389
     29 C25        10.2804   -7.4832    8.7801 C.3       1 <0>        -0.1455
     30 C26         9.0094   -8.1701    8.2762 C.3       1 <0>        -0.0129
     31 H1         -1.4049    2.0242    0.9298 H         1 <0>         0.1335
     32 H2          0.7008    3.2894    0.7805 H         1 <0>         0.1364
     33 H3          2.8436    2.0967    0.5726 H         1 <0>         0.1322
     34 H4          0.7625   -1.6376    0.6545 H         1 <0>         0.1289
     35 H5         -1.3751   -0.4358    0.8626 H         1 <0>         0.1350
     36 H6          4.0924    0.4838   -1.1952 H         1 <0>         0.2188
     37 H7          2.0747   -1.9778    2.7314 H         1 <0>         0.1271
     38 H8          3.3150   -3.7966    3.7875 H         1 <0>         0.1331
     39 H9          6.5398   -3.2575    1.0191 H         1 <0>         0.1354
     40 H10         7.4478   -4.5876    1.8161 H         1 <0>         0.1400
     41 H11         8.6755   -6.4227    2.8990 H         1 <0>         0.1352
     42 H12         5.4447   -6.9764    5.6431 H         1 <0>         0.1288
     43 H13         4.2147   -5.1346    4.5743 H         1 <0>         0.1344
     44 H14         6.9870   -7.7482    6.8242 H         1 <0>         0.0861
     45 H15         6.2348   -8.9099    5.7049 H         1 <0>         0.1092
     46 H16         7.5761  -10.1197    7.3694 H         1 <0>         0.1485
     47 H17         8.3334  -10.2740    5.7659 H         1 <0>         0.1425
     48 H18         9.8302  -10.6525    8.2721 H         1 <0>         0.1289
     49 H19        10.4465  -10.6912    6.6033 H         1 <0>         0.1310
     50 H20        12.2733  -10.2351    8.2178 H         1 <0>         0.1129
     51 H21        12.0118   -8.8430    7.1386 H         1 <0>         0.0881
     52 H22        10.9306   -9.1544    9.9777 H         1 <0>         0.0819
     53 H23        12.2416   -8.0635    9.4633 H         1 <0>         0.0946
     54 H24        10.0446   -6.8785    9.6559 H         1 <0>         0.1121
     55 H25        10.6851   -6.8449    7.9946 H         1 <0>         0.0881
     56 H26         8.2710   -7.4148    8.0070 H         1 <0>         0.1275
     57 H27         8.6054   -8.8078    9.0625 H         1 <0>         0.1299
     58 H28         9.7449   -8.4050    6.3892 H         1 <0>         0.4297
@<TRIPOS>BOND
     1    1    6 ar
     2    1    2 ar
     3    1   31 1
     4    2    3 ar
     5    2   32 1
     6    3    4 ar
     7    3   33 1
     8    4    5 ar
     9    4    7 1
    10    5    6 ar
    11    5   34 1
    12    6   35 1
    13    7   11 1
    14    7    8 1
    15    8    9 2
    16    8   36 1
    17    9   10 1
    18   10   15 ar
    19   10   11 ar
    20   11   12 ar
    21   12   13 ar
    22   12   37 1
    23   13   14 ar
    24   13   38 1
    25   14   15 ar
    26   14   16 1
    27   15   39 1
    28   16   21 ar
    29   16   17 ar
    30   17   18 ar
    31   17   40 1
    32   18   19 ar
    33   18   41 1
    34   19   20 ar
    35   19   22 1
    36   20   21 ar
    37   20   42 1
    38   21   43 1
    39   22   23 1
    40   23   24 1
    41   23   44 1
    42   23   45 1
    43   24   25 1
    44   24   46 1
    45   24   47 1
    46   25   30 1
    47   25   26 1
    48   25   58 1
    49   26   27 1
    50   26   48 1
    51   26   49 1
    52   27   28 1
    53   27   50 1
    54   27   51 1
    55   28   29 1
    56   28   52 1
    57   28   53 1
    58   29   30 1
    59   29   54 1
    60   29   55 1
    61   30   56 1
    62   30   57 1
@<TRIPOS>MOLECULE
CHEMBL70034
   50    53     0     0     0
SMALL
USER_CHARGES

@<TRIPOS>ATOM
      1 C1          0.1139    1.3609    0.2108 C.3       1 <0>        -0.1638
      2 C2          0.0797   -0.1673    0.1457 C.3       1 <0>         0.1278
      3 C3          0.7823   -0.7460    1.3754 C.3       1 <0>        -0.1634
      4 N1         -1.3121   -0.6239    0.1184 N.pl3     1 <0>        -0.4482
      5 C4         -2.2377   -0.3709    1.0946 C.2       1 <0>         0.0675
      6 C5         -3.4227   -0.9354    0.7557 C.2       1 <0>        -0.1089
      7 C6         -3.2158   -1.5945   -0.5400 C.ar      1 <0>        -0.2531
      8 C7         -1.8745   -1.3594   -0.8895 C.ar      1 <0>         0.3474
      9 N2         -1.4212   -1.8536   -2.0409 N.ar      1 <0>        -0.5703
     10 C8         -2.2123   -2.5434   -2.8338 C.ar      1 <0>         0.3626
     11 N3         -3.4782   -2.7843   -2.5446 N.ar      1 <0>        -0.6012
     12 C9         -4.0193   -2.3385   -1.4140 C.ar      1 <0>         0.4929
     13 N4         -5.3462   -2.5917   -1.1151 N.pl3     1 <0>        -0.8318
     14 C10        -4.6806   -0.8956    1.5397 C.ar      1 <0>        -0.0052
     15 C11        -5.8755   -0.5237    0.9249 C.ar      1 <0>        -0.1112
     16 C12        -7.0439   -0.4881    1.6568 C.ar      1 <0>        -0.1119
     17 C13        -7.0311   -0.8221    3.0044 C.ar      1 <0>         0.0838
     18 C14        -5.8430   -1.1928    3.6195 C.ar      1 <0>        -0.1289
     19 C15        -4.6721   -1.2355    2.8919 C.ar      1 <0>        -0.0928
     20 O1         -8.1840   -0.7856    3.7229 O.3       1 <0>        -0.2556
     21 C16        -8.2993    0.1551    4.6967 C.ar      1 <0>         0.1271
     22 C17        -7.3178    1.1244    4.8463 C.ar      1 <0>        -0.1961
     23 C18        -7.4376    2.0798    5.8368 C.ar      1 <0>        -0.0605
     24 C19        -8.5344    2.0708    6.6787 C.ar      1 <0>        -0.1260
     25 C20        -9.5137    1.1057    6.5321 C.ar      1 <0>        -0.0613
     26 C21        -9.4016    0.1514    5.5396 C.ar      1 <0>        -0.1465
     27 C22        -8.6625    3.1143    7.7584 C.3       1 <0>         0.1195
     28 O2         -9.3658    4.2473    7.2448 O.3       1 <0>        -0.5686
     29 H1          1.1494    1.7007    0.2311 H         1 <0>         0.0792
     30 H2         -0.3867    1.7732   -0.6653 H         1 <0>         0.0640
     31 H3         -0.3967    1.6977    1.1131 H         1 <0>         0.0639
     32 H4          0.5903   -0.5040   -0.7566 H         1 <0>         0.1094
     33 H5          0.2717   -0.4093    2.2777 H         1 <0>         0.0638
     34 H6          0.7580   -1.8348    1.3290 H         1 <0>         0.0640
     35 H7          1.8178   -0.4063    1.3957 H         1 <0>         0.0792
     36 H8         -2.0522    0.1922    1.9973 H         1 <0>         0.1775
     37 H9         -1.8102   -2.9283   -3.7594 H         1 <0>         0.1998
     38 H10        -5.7310   -2.2529   -0.2917 H         1 <0>         0.4110
     39 H11        -5.8916   -3.1082   -1.7288 H         1 <0>         0.4078
     40 H12        -5.8860   -0.2635   -0.1232 H         1 <0>         0.1346
     41 H13        -7.9697   -0.1998    1.1813 H         1 <0>         0.1374
     42 H14        -5.8363   -1.4520    4.6679 H         1 <0>         0.1338
     43 H15        -3.7489   -1.5279    3.3700 H         1 <0>         0.1334
     44 H16        -6.4607    1.1317    4.1892 H         1 <0>         0.1316
     45 H17        -6.6738    2.8343    5.9539 H         1 <0>         0.1269
     46 H18       -10.3690    1.1004    7.1914 H         1 <0>         0.1326
     47 H19       -10.1691   -0.5993    5.4224 H         1 <0>         0.1355
     48 H20        -9.2117    2.6979    8.6028 H         1 <0>         0.0556
     49 H21        -7.6694    3.4213    8.0866 H         1 <0>         0.0544
     50 H22        -9.4853    4.9603    7.8870 H         1 <0>         0.3814
@<TRIPOS>BOND
     1    1    2 1
     2    1   29 1
     3    1   30 1
     4    1   31 1
     5    2    3 1
     6    2    4 1
     7    2   32 1
     8    3   33 1
     9    3   34 1
    10    3   35 1
    11    4    8 1
    12    4    5 1
    13    5    6 2
    14    5   36 1
    15    6    7 1
    16    6   14 1
    17    7   12 ar
    18    7    8 ar
    19    8    9 ar
    20    9   10 ar
    21   10   11 ar
    22   10   37 1
    23   11   12 ar
    24   12   13 1
    25   13   38 1
    26   13   39 1
    27   14   19 ar
    28   14   15 ar
    29   15   16 ar
    30   15   40 1
    31   16   17 ar
    32   16   41 1
    33   17   18 ar
    34   17   20 1
    35   18   19 ar
    36   18   42 1
    37   19   43 1
    38   20   21 1
    39   21   26 ar
    40   21   22 ar
    41   22   23 ar
    42   22   44 1
    43   23   24 ar
    44   23   45 1
    45   24   25 ar
    46   24   27 1
    47   25   26 ar
    48   25   46 1
    49   26   47 1
    50   27   28 1
    51   27   48 1
    52   27   49 1
    53   28   50 1
@<TRIPOS>MOLECULE
CHEMBL231469
   64    68     0     0     0
SMALL
USER_CHARGES

@<TRIPOS>ATOM
      1 C1         11.0656   -7.3349    0.3026 C.3       1 <0>         0.0848
      2 N1         10.1130   -6.3023   -0.1127 N.am      1 <0>        -0.7124
      3 C2          8.8863   -6.6527   -0.5474 C.2       1 <0>         0.5712
      4 O1          8.5705   -7.8251   -0.5949 O.2       1 <0>        -0.5328
      5 C3          7.9228   -5.6083   -0.9676 C.ar      1 <0>         0.1131
      6 C4          6.6565   -5.9767   -1.4098 C.ar      1 <0>        -0.1888
      7 C5          5.7628   -4.9829   -1.8010 C.ar      1 <0>         0.1568
      8 C6          6.1778   -3.6556   -1.7322 C.ar      1 <0>        -0.1711
      9 C7          7.4534   -3.3681   -1.2815 C.ar      1 <0>         0.1376
     10 N2          8.2743   -4.3288   -0.9133 N.ar      1 <0>        -0.4785
     11 O2          4.5180   -5.3004   -2.2391 O.3       1 <0>        -0.2391
     12 C8          4.2059   -6.6166   -2.3761 C.ar      1 <0>         0.0880
     13 C9          3.9284   -7.3836   -1.2492 C.ar      1 <0>        -0.1124
     14 C10         3.6109   -8.7204   -1.3753 C.ar      1 <0>        -0.0601
     15 C11         3.5667   -9.3060   -2.6302 C.ar      1 <0>         0.0036
     16 C12         3.8450   -8.5383   -3.7709 C.ar      1 <0>         0.0707
     17 C13         4.1602   -7.1857   -3.6350 C.ar      1 <0>        -0.0682
     18 N3          3.7255   -9.3717   -4.8405 N.2       1 <0>        -0.5086
     19 C14         3.3994  -10.5636   -4.4097 C.2       1 <0>         0.4937
     20 O3          3.2949  -10.5574   -3.0691 O.3       1 <0>        -0.2189
     21 N4          3.1933  -11.6642   -5.2125 N.pl3     1 <0>        -0.6102
     22 C15         2.7151  -12.8554   -4.6568 C.ar      1 <0>         0.1692
     23 C16         1.9467  -12.8244   -3.5000 C.ar      1 <0>        -0.1284
     24 C17         1.4760  -14.0019   -2.9536 C.ar      1 <0>        -0.0728
     25 C18         1.7694  -15.2124   -3.5572 C.ar      1 <0>        -0.0318
     26 C19         2.5345  -15.2462   -4.7096 C.ar      1 <0>        -0.0580
     27 C20         3.0028  -14.0708   -5.2639 C.ar      1 <0>        -0.1343
     28 C21         2.8523  -16.5661   -5.3637 C.3       1 <0>         0.0976
     29 N5          3.8805  -17.2653   -4.5814 N.3       1 <0>        -0.5303
     30 C22         5.1591  -16.5419   -4.6263 C.3       1 <0>         0.0225
     31 C23         6.1840  -17.2691   -3.7531 C.3       1 <0>        -0.0021
     32 N6          6.3608  -18.6417   -4.2452 N.4       1 <0>        -0.3880
     33 C24         5.0810  -19.3588   -4.1712 C.3       1 <0>        -0.0022
     34 C25         4.0469  -18.6490   -5.0479 C.3       1 <0>         0.0270
     35 C26         7.3580  -19.3336   -3.4178 C.3       1 <0>        -0.0457
     36 Cl1         1.1768  -16.6909   -2.8669 Cl        1 <0>        -0.0513
     37 H1         10.6454   -7.9047    1.1314 H         1 <0>         0.0631
     38 H2         11.2641   -8.0040   -0.5346 H         1 <0>         0.0620
     39 H3         11.9961   -6.8642    0.6201 H         1 <0>         0.0817
     40 H4         10.3651   -5.3664   -0.0749 H         1 <0>         0.4154
     41 H5          6.3709   -7.0175   -1.4495 H         1 <0>         0.1530
     42 H6          5.5110   -2.8592   -2.0280 H         1 <0>         0.1551
     43 H7          7.7791   -2.3398   -1.2267 H         1 <0>         0.1773
     44 H8          3.9621   -6.9300   -0.2696 H         1 <0>         0.1525
     45 H9          3.3973   -9.3101   -0.4961 H         1 <0>         0.1479
     46 H10         4.3717   -6.5874   -4.5089 H         1 <0>         0.1501
     47 H11         3.3798  -11.6129   -6.1630 H         1 <0>         0.4451
     48 H12         1.7181  -11.8802   -3.0281 H         1 <0>         0.1434
     49 H13         0.8785  -13.9783   -2.0541 H         1 <0>         0.1446
     50 H14         3.5962  -14.0975   -6.1658 H         1 <0>         0.1382
     51 H15         1.9505  -17.1768   -5.4066 H         1 <0>         0.1055
     52 H16         3.2211  -16.3912   -6.3744 H         1 <0>         0.0618
     53 H17         5.5193  -16.5034   -5.6543 H         1 <0>         0.0618
     54 H18         5.0167  -15.5281   -4.2522 H         1 <0>         0.1228
     55 H19         7.1372  -16.7421   -3.7962 H         1 <0>         0.1352
     56 H20         5.8298  -17.2954   -2.7226 H         1 <0>         0.1381
     57 H21         5.2164  -20.3811   -4.5244 H         1 <0>         0.1364
     58 H22         4.7325  -19.3744   -3.1386 H         1 <0>         0.1382
     59 H23         3.0931  -19.1724   -4.9815 H         1 <0>         0.1251
     60 H24         4.3888  -18.6453   -6.0829 H         1 <0>         0.0622
     61 H25         7.0165  -19.3597   -2.3830 H         1 <0>         0.1231
     62 H26         7.4893  -20.3522   -3.7828 H         1 <0>         0.1244
     63 H27         8.3081  -18.8023   -3.4735 H         1 <0>         0.1240
     64 H28         6.6775  -18.6172   -5.2029 H         1 <0>         0.4222
@<TRIPOS>BOND
     1    1    2 1
     2    1   37 1
     3    1   38 1
     4    1   39 1
     5    2    3 am
     6    2   40 1
     7    3    4 2
     8    3    5 1
     9    5   10 ar
    10    5    6 ar
    11    6    7 ar
    12    6   41 1
    13    7    8 ar
    14    7   11 1
    15    8    9 ar
    16    8   42 1
    17    9   10 ar
    18    9   43 1
    19   11   12 1
    20   12   17 ar
    21   12   13 ar
    22   13   14 ar
    23   13   44 1
    24   14   15 ar
    25   14   45 1
    26   15   20 1
    27   15   16 ar
    28   16   17 ar
    29   16   18 1
    30   17   46 1
    31   18   19 2
    32   19   20 1
    33   19   21 1
    34   21   22 1
    35   21   47 1
    36   22   27 ar
    37   22   23 ar
    38   23   24 ar
    39   23   48 1
    40   24   25 ar
    41   24   49 1
    42   25   26 ar
    43   25   36 1
    44   26   27 ar
    45   26   28 1
    46   27   50 1
    47   28   29 1
    48   28   51 1
    49   28   52 1
    50   29   34 1
    51   29   30 1
    52   30   31 1
    53   30   53 1
    54   30   54 1
    55   31   32 1
    56   31   55 1
    57   31   56 1
    58   32   33 1
    59   32   35 1
    60   32   64 1
    61   33   34 1
    62   33   57 1
    63   33   58 1
    64   34   59 1
    65   34   60 1
    66   35   61 1
    67   35   62 1
    68   35   63 1
@<TRIPOS>MOLECULE
CHEMBL231568
   63    67     0     0     0
SMALL
USER_CHARGES

@<TRIPOS>ATOM
      1 C1         -0.4825   -5.3868   -6.9888 C.3       1 <0>         0.0845
      2 N1         -0.9564   -4.6292   -5.8278 N.am      1 <0>        -0.7123
      3 C2         -1.3640   -5.2791   -4.7197 C.2       1 <0>         0.5702
      4 O1         -1.3385   -6.4934   -4.6836 O.2       1 <0>        -0.5315
      5 C3         -1.8433   -4.5128   -3.5455 C.ar      1 <0>         0.1140
      6 C4         -2.2572   -5.1898   -2.4030 C.ar      1 <0>        -0.1890
      7 C5         -2.7049   -4.4548   -1.3082 C.ar      1 <0>         0.1564
      8 C6         -2.7189   -3.0659   -1.4048 C.ar      1 <0>        -0.1714
      9 C7         -2.2916   -2.4648   -2.5749 C.ar      1 <0>         0.1375
     10 N2         -1.8686   -3.1858   -3.5915 N.ar      1 <0>        -0.4783
     11 O2         -3.1178   -5.0772   -0.1748 O.3       1 <0>        -0.2393
     12 C8         -3.1715   -6.4357   -0.1759 C.ar      1 <0>         0.0882
     13 C9         -1.9985   -7.1754   -0.0660 C.ar      1 <0>        -0.1104
     14 C10        -2.0400   -8.5544   -0.0659 C.ar      1 <0>        -0.0597
     15 C11        -3.2554   -9.2104   -0.1759 C.ar      1 <0>         0.0061
     16 C12        -4.4423   -8.4707   -0.2871 C.ar      1 <0>         0.0684
     17 C13        -4.3920   -7.0762   -0.2806 C.ar      1 <0>        -0.0676
     18 N3         -5.4572   -9.3733   -0.3783 N.2       1 <0>        -0.5060
     19 C14        -4.9520  -10.5795   -0.3287 C.2       1 <0>         0.4912
     20 O3         -3.6146  -10.5152   -0.2057 O.3       1 <0>        -0.2163
     21 N4         -5.6839  -11.7451   -0.3925 N.pl3     1 <0>        -0.6096
     22 C15        -5.0547  -12.9778   -0.1905 C.ar      1 <0>         0.2098
     23 C16        -3.9055  -13.0530    0.5868 C.ar      1 <0>        -0.1627
     24 C17        -3.2837  -14.2702    0.7860 C.ar      1 <0>        -0.0305
     25 C18        -3.8028  -15.4167    0.2127 C.ar      1 <0>        -0.0819
     26 C19        -4.9513  -15.3471   -0.5646 C.ar      1 <0>         0.1620
     27 C20        -5.5808  -14.1282   -0.7617 C.ar      1 <0>        -0.2303
     28 O4         -5.4605  -16.4744   -1.1280 O.3       1 <0>        -0.2869
     29 C21        -6.6442  -16.3286   -1.9152 C.3       1 <0>         0.0382
     30 C22        -7.0643  -17.6942   -2.4623 C.3       1 <0>         0.0225
     31 H1         -7.3052  -18.3656   -1.6381 H         1 <0>         0.1525
     32 C23        -5.9233  -18.2933   -3.3111 C.3       1 <0>        -0.1305
     33 C24        -6.6793  -18.9743   -4.4822 C.3       1 <0>        -0.1444
     34 C25        -7.8594  -17.9956   -4.7039 C.3       1 <0>        -0.0100
     35 N5         -8.2361  -17.5424   -3.3443 N.4       1 <0>        -0.3843
     36 C26        -8.6430  -16.1315   -3.3872 C.3       1 <0>        -0.0632
     37 Cl1        -3.0175  -16.9443    0.4647 Cl        1 <0>        -0.0411
     38 H2         -0.1980   -4.6957   -7.7821 H         1 <0>         0.0817
     39 H3          0.3811   -5.9872   -6.7029 H         1 <0>         0.0636
     40 H4         -1.2782   -6.0412   -7.3450 H         1 <0>         0.0623
     41 H5         -0.9767   -3.6598   -5.8567 H         1 <0>         0.4151
     42 H6         -2.2322   -6.2689   -2.3658 H         1 <0>         0.1531
     43 H7         -3.0601   -2.4644   -0.5753 H         1 <0>         0.1549
     44 H8         -2.3012   -1.3877   -2.6540 H         1 <0>         0.1773
     45 H9         -1.0494   -6.6670    0.0195 H         1 <0>         0.1533
     46 H10        -1.1254   -9.1224    0.0194 H         1 <0>         0.1493
     47 H11        -5.3019   -6.5001   -0.3614 H         1 <0>         0.1500
     48 H12        -6.6354  -11.7108   -0.5774 H         1 <0>         0.4436
     49 H13        -3.4980  -12.1590    1.0353 H         1 <0>         0.1474
     50 H14        -2.3903  -14.3267    1.3902 H         1 <0>         0.1547
     51 H15        -6.4765  -14.0728   -1.3625 H         1 <0>         0.1397
     52 H16        -7.4446  -15.9233   -1.2961 H         1 <0>         0.0889
     53 H17        -6.4475  -15.6496   -2.7449 H         1 <0>         0.0880
     54 H18        -5.2655  -17.5074   -3.6822 H         1 <0>         0.1013
     55 H19        -5.3606  -19.0288   -2.7362 H         1 <0>         0.1198
     56 H20        -6.0503  -19.0349   -5.3703 H         1 <0>         0.1201
     57 H21        -7.0398  -19.9614   -4.1928 H         1 <0>         0.1016
     58 H22        -7.5413  -17.1493   -5.3129 H         1 <0>         0.1339
     59 H23        -8.6960  -18.5106   -5.1760 H         1 <0>         0.1395
     60 H24        -7.8513  -15.5387   -3.8452 H         1 <0>         0.1250
     61 H25        -9.5559  -16.0344   -3.9748 H         1 <0>         0.1309
     62 H26        -8.8239  -15.7746   -2.3733 H         1 <0>         0.1262
     63 H27        -8.9984  -18.1040   -2.9959 H         1 <0>         0.4341
@<TRIPOS>BOND
     1    1    2 1
     2    1   38 1
     3    1   39 1
     4    1   40 1
     5    2    3 am
     6    2   41 1
     7    3    4 2
     8    3    5 1
     9    5   10 ar
    10    5    6 ar
    11    6    7 ar
    12    6   42 1
    13    7    8 ar
    14    7   11 1
    15    8    9 ar
    16    8   43 1
    17    9   10 ar
    18    9   44 1
    19   11   12 1
    20   12   17 ar
    21   12   13 ar
    22   13   14 ar
    23   13   45 1
    24   14   15 ar
    25   14   46 1
    26   15   20 1
    27   15   16 ar
    28   16   17 ar
    29   16   18 1
    30   17   47 1
    31   18   19 2
    32   19   20 1
    33   19   21 1
    34   21   22 1
    35   21   48 1
    36   22   27 ar
    37   22   23 ar
    38   23   24 ar
    39   23   49 1
    40   24   25 ar
    41   24   50 1
    42   25   26 ar
    43   25   37 1
    44   26   27 ar
    45   26   28 1
    46   27   51 1
    47   28   29 1
    48   29   30 1
    49   29   52 1
    50   29   53 1
    51   30   31 1
    52   30   35 1
    53   30   32 1
    54   32   33 1
    55   32   54 1
    56   32   55 1
    57   33   34 1
    58   33   56 1
    59   33   57 1
    60   34   35 1
    61   34   58 1
    62   34   59 1
    63   35   36 1
    64   35   63 1
    65   36   60 1
    66   36   61 1
    67   36   62 1
@<TRIPOS>MOLECULE
CHEMBL427837
   73    78     0     0     0
SMALL
USER_CHARGES

@<TRIPOS>ATOM
      1 C1         -4.9562   -0.7626   -1.1682 C.3       1 <0>        -0.0462
      2 N1         -4.4685   -2.0944   -0.7856 N.4       1 <0>        -0.3879
      3 C2         -5.6122   -2.9881   -0.5601 C.3       1 <0>        -0.0028
      4 C3         -5.1043   -4.3807   -0.1798 C.3       1 <0>         0.0271
      5 N2         -4.2874   -4.2853    1.0383 N.3       1 <0>        -0.5303
      6 C4         -3.1522   -3.3741    0.8354 C.3       1 <0>         0.0249
      7 C5         -3.6761   -1.9899    0.4468 C.3       1 <0>        -0.0022
      8 C6         -3.8270   -5.6123    1.4686 C.3       1 <0>         0.0982
      9 C7         -3.3295   -5.5351    2.8890 C.ar      1 <0>        -0.0636
     10 C8         -1.9761   -5.6204    3.1516 C.ar      1 <0>        -0.1354
     11 C9         -1.5183   -5.5488    4.4608 C.ar      1 <0>         0.1736
     12 C10        -2.4233   -5.3915    5.5028 C.ar      1 <0>        -0.1033
     13 C11        -3.7752   -5.3068    5.2345 C.ar      1 <0>        -0.0837
     14 C12        -4.2283   -5.3732    3.9284 C.ar      1 <0>        -0.0263
     15 Cl1        -5.9280   -5.2591    3.5941 Cl        1 <0>        -0.0528
     16 N3         -0.1485   -5.6354    4.7297 N.pl3     1 <0>        -0.6402
     17 C13         0.2875   -6.1537    5.9330 C.2       1 <0>         0.5516
     18 N4         -0.4874   -6.6601    6.8588 N.2       1 <0>        -0.5209
     19 C14         0.2688   -7.0763    7.9098 C.ar      1 <0>         0.1028
     20 C15        -0.0386   -7.6762    9.1336 C.ar      1 <0>        -0.0542
     21 C16         0.9705   -7.9892   10.0157 C.ar      1 <0>        -0.1200
     22 C17         2.2965   -7.7118    9.6975 C.ar      1 <0>         0.0428
     23 C18         2.6153   -7.1178    8.4887 C.ar      1 <0>        -0.0805
     24 C19         1.6080   -6.7979    7.5911 C.ar      1 <0>         0.0547
     25 N5          1.5925   -6.2197    6.3326 N.pl3     1 <0>        -0.6122
     26 O1          3.2836   -8.0254   10.5784 O.3       1 <0>        -0.2074
     27 C20         3.7010   -9.3142   10.6343 C.ar      1 <0>         0.2805
     28 C21         3.0683  -10.3015    9.8987 C.ar      1 <0>        -0.2632
     29 C22         3.5187  -11.6128    9.9759 C.ar      1 <0>         0.2240
     30 N6          4.5366  -11.9516   10.7323 N.ar      1 <0>        -0.4807
     31 C23         5.1942  -11.0491   11.4694 C.ar      1 <0>         0.1824
     32 C24         4.7986   -9.6895   11.4405 C.ar      1 <0>        -0.0898
     33 C25         5.4934   -8.7443   12.2107 C.ar      1 <0>        -0.1386
     34 C26         6.5489   -9.1430   12.9783 C.ar      1 <0>         0.1362
     35 C27         6.9463  -10.4878   13.0051 C.ar      1 <0>         0.2177
     36 C28         6.2820  -11.4292   12.2735 C.ar      1 <0>        -0.2367
     37 O2          8.0006  -10.8601   13.7774 O.3       1 <0>        -0.2767
     38 C29         8.3584  -12.2435   13.7636 C.3       1 <0>         0.0113
     39 O3          7.2224   -8.2271   13.7243 O.3       1 <0>        -0.2856
     40 C30         6.7696   -6.8736   13.6540 C.3       1 <0>         0.0151
     41 H1         -4.1077   -0.0995   -1.3368 H         1 <0>         0.1241
     42 H2         -5.5443   -0.8399   -2.0827 H         1 <0>         0.1253
     43 H3         -5.5786   -0.3601   -0.3689 H         1 <0>         0.1236
     44 H4         -6.2283   -2.5930    0.2476 H         1 <0>         0.1387
     45 H5         -6.2066   -3.0545   -1.4713 H         1 <0>         0.1372
     46 H6         -5.9529   -5.0402    0.0021 H         1 <0>         0.1253
     47 H7         -4.4993   -4.7817   -0.9930 H         1 <0>         0.0621
     48 H8         -2.5766   -3.2993    1.7580 H         1 <0>         0.1208
     49 H9         -2.5150   -3.7586    0.0390 H         1 <0>         0.0605
     50 H10        -2.8352   -1.3162    0.2820 H         1 <0>         0.1346
     51 H11        -4.3022   -1.5999    1.2493 H         1 <0>         0.1380
     52 H12        -4.6540   -6.3200    1.4112 H         1 <0>         0.1035
     53 H13        -3.0183   -5.9449    0.8179 H         1 <0>         0.0604
     54 H14        -1.2746   -5.7431    2.3397 H         1 <0>         0.1322
     55 H15        -2.0700   -5.3358    6.5219 H         1 <0>         0.1557
     56 H16        -4.4793   -5.1848    6.0443 H         1 <0>         0.1422
     57 H17         0.4953   -5.3314    4.0708 H         1 <0>         0.4238
     58 H18        -1.0657   -7.8935    9.3870 H         1 <0>         0.1499
     59 H19         0.7315   -8.4529   10.9614 H         1 <0>         0.1463
     60 H20         3.6455   -6.9037    8.2454 H         1 <0>         0.1395
     61 H21         2.2278  -10.0530    9.2677 H         1 <0>         0.1849
     62 H22         3.0173  -12.3751    9.3980 H         1 <0>         0.2116
     63 H23         5.1944   -7.7066   12.1958 H         1 <0>         0.1726
     64 H24         6.5985  -12.4613   12.3038 H         1 <0>         0.1718
     65 H25         9.2131  -12.4043   14.4207 H         1 <0>         0.1226
     66 H26         7.5153  -12.8403   14.1115 H         1 <0>         0.0702
     67 H27         8.6197  -12.5411   12.7481 H         1 <0>         0.0695
     68 H28         6.8380   -6.5206   12.6250 H         1 <0>         0.0661
     69 H29         5.7337   -6.8192   13.9886 H         1 <0>         0.0677
     70 H30         7.3917   -6.2486   14.2946 H         1 <0>         0.1191
     71 H31        -3.8920   -2.4666   -1.5253 H         1 <0>         0.4221
     72 H32         4.8189  -12.8792   10.7577 H         1 <0>         0.4479
     73 H33         2.3642   -5.9159    5.8295 H         1 <0>         0.4286
@<TRIPOS>BOND
     1    1    2 1
     2    1   41 1
     3    1   42 1
     4    1   43 1
     5    2    7 1
     6    2    3 1
     7    2   71 1
     8    3    4 1
     9    3   44 1
    10    3   45 1
    11    4    5 1
    12    4   46 1
    13    4   47 1
    14    5    6 1
    15    5    8 1
    16    6    7 1
    17    6   48 1
    18    6   49 1
    19    7   50 1
    20    7   51 1
    21    8    9 1
    22    8   52 1
    23    8   53 1
    24    9   14 ar
    25    9   10 ar
    26   10   11 ar
    27   10   54 1
    28   11   12 ar
    29   11   16 1
    30   12   13 ar
    31   12   55 1
    32   13   14 ar
    33   13   56 1
    34   14   15 1
    35   16   17 1
    36   16   57 1
    37   17   25 1
    38   17   18 2
    39   18   19 1
    40   19   24 ar
    41   19   20 ar
    42   20   21 ar
    43   20   58 1
    44   21   22 ar
    45   21   59 1
    46   22   23 ar
    47   22   26 1
    48   23   24 ar
    49   23   60 1
    50   24   25 1
    51   25   73 1
    52   26   27 1
    53   27   32 ar
    54   27   28 ar
    55   28   29 ar
    56   28   61 1
    57   29   30 ar
    58   29   62 1
    59   30   31 ar
    60   30   72 1
    61   31   36 ar
    62   31   32 ar
    63   32   33 ar
    64   33   34 ar
    65   33   63 1
    66   34   35 ar
    67   34   39 1
    68   35   36 ar
    69   35   37 1
    70   36   64 1
    71   37   38 1
    72   38   65 1
    73   38   66 1
    74   38   67 1
    75   39   40 1
    76   40   68 1
    77   40   69 1
    78   40   70 1
@<TRIPOS>MOLECULE
CHEMBL427837__1
   73    78     0     0     0
SMALL
USER_CHARGES

@<TRIPOS>ATOM
      1 C1         -7.6842    0.3942    6.0411 C.3       1 <0>        -0.0459
      2 N1         -6.8676   -0.4792    5.1877 N.4       1 <0>        -0.3881
      3 C2         -7.7467   -1.3065    4.3509 C.3       1 <0>        -0.0025
      4 C3         -6.8963   -2.2031    3.4483 C.3       1 <0>         0.0263
      5 N2         -6.0373   -3.0574    4.2805 N.3       1 <0>        -0.5295
      6 C4         -5.1688   -2.2428    5.1421 C.3       1 <0>         0.0230
      7 C5         -6.0334   -1.3459    6.0307 C.3       1 <0>        -0.0014
      8 C6         -5.2447   -3.9745    3.4506 C.3       1 <0>         0.0971
      9 C7         -4.5044   -4.9420    4.3378 C.ar      1 <0>        -0.0643
     10 C8         -3.1578   -4.7594    4.5853 C.ar      1 <0>        -0.1381
     11 C9         -2.4763   -5.6510    5.4032 C.ar      1 <0>         0.1762
     12 C10        -3.1513   -6.7245    5.9703 C.ar      1 <0>        -0.1067
     13 C11        -4.4975   -6.9023    5.7196 C.ar      1 <0>        -0.0823
     14 C12        -5.1754   -6.0091    4.9082 C.ar      1 <0>        -0.0295
     15 Cl1        -6.8693   -6.2318    4.6003 Cl        1 <0>        -0.0515
     16 N3         -1.1126   -5.4688    5.6552 N.pl3     1 <0>        -0.6396
     17 C13        -0.5559   -5.9516    6.8222 C.2       1 <0>         0.5487
     18 N4          0.7738   -5.9161    7.1302 N.pl3     1 <0>        -0.6111
     19 H1          1.4832   -5.5531    6.5771 H         1 <0>         0.4307
     20 C14         0.9211   -6.4957    8.3814 C.ar      1 <0>         0.0631
     21 C15         2.0102   -6.7401    9.2042 C.ar      1 <0>        -0.0757
     22 C16         1.8256   -7.3516   10.4265 C.ar      1 <0>        -0.1187
     23 C17         0.5508   -7.7259   10.8408 C.ar      1 <0>         0.0427
     24 C18        -0.5441   -7.4891   10.0323 C.ar      1 <0>        -0.0576
     25 C19        -0.3687   -6.8703    8.7920 C.ar      1 <0>         0.0930
     26 N5         -1.2252   -6.5071    7.8016 N.2       1 <0>        -0.5213
     27 O1          0.3821   -8.3284   12.0478 O.3       1 <0>        -0.2071
     28 C20         0.4497   -7.5557   13.1599 C.ar      1 <0>         0.2823
     29 C21         0.5711   -6.1800   13.0664 C.ar      1 <0>        -0.2630
     30 C22         0.6381   -5.4145   14.2232 C.ar      1 <0>         0.2225
     31 N6          0.5897   -5.9585   15.4168 N.ar      1 <0>        -0.4808
     32 C23         0.4730   -7.2813   15.5809 C.ar      1 <0>         0.1823
     33 C24         0.3927   -8.1294   14.4495 C.ar      1 <0>        -0.0894
     34 C25         0.2648   -9.5159   14.6248 C.ar      1 <0>        -0.1383
     35 C26         0.2134  -10.0353   15.8856 C.ar      1 <0>         0.1367
     36 C27         0.2871   -9.1975   17.0081 C.ar      1 <0>         0.2182
     37 C28         0.4232   -7.8469   16.8662 C.ar      1 <0>        -0.2373
     38 O2          0.2332   -9.7387   18.2533 O.3       1 <0>        -0.2763
     39 C29         0.3130   -8.8350   19.3575 C.3       1 <0>         0.0113
     40 O3          0.0890  -11.3787   16.0555 O.3       1 <0>        -0.2854
     41 C30         0.0186  -12.1784   14.8733 C.3       1 <0>         0.0147
     42 H2         -7.0321    1.0092    6.6612 H         1 <0>         0.1234
     43 H3         -8.3034    1.0374    5.4157 H         1 <0>         0.1256
     44 H4         -8.3233   -0.2159    6.6795 H         1 <0>         0.1233
     45 H5         -8.3773   -1.9263    4.9883 H         1 <0>         0.1387
     46 H6         -8.3743   -0.6621    3.7353 H         1 <0>         0.1376
     47 H7         -7.5483   -2.8278    2.8378 H         1 <0>         0.1262
     48 H8         -6.2754   -1.5835    2.8012 H         1 <0>         0.0624
     49 H9         -4.5606   -2.8964    5.7673 H         1 <0>         0.1221
     50 H10        -4.5195   -1.6239    4.5228 H         1 <0>         0.0598
     51 H11        -5.3909   -0.7306    6.6605 H         1 <0>         0.1332
     52 H12        -6.6728   -1.9654    6.6595 H         1 <0>         0.1375
     53 H13        -5.9076   -4.5267    2.7845 H         1 <0>         0.1056
     54 H14        -4.5291   -3.4031    2.8594 H         1 <0>         0.0597
     55 H15        -2.6353   -3.9241    4.1428 H         1 <0>         0.1322
     56 H16        -2.6236   -7.4197    6.6065 H         1 <0>         0.1580
     57 H17        -5.0228   -7.7367    6.1602 H         1 <0>         0.1420
     58 H18        -0.5581   -5.0031    5.0097 H         1 <0>         0.4254
     59 H19         3.0020   -6.4523    8.8881 H         1 <0>         0.1425
     60 H20         2.6752   -7.5414   11.0657 H         1 <0>         0.1454
     61 H21        -1.5316   -7.7812   10.3576 H         1 <0>         0.1475
     62 H22         0.6138   -5.7040   12.0979 H         1 <0>         0.1834
     63 H23         0.7331   -4.3420   14.1383 H         1 <0>         0.2103
     64 H24         0.2070  -10.1684   13.7661 H         1 <0>         0.1733
     65 H25         0.4791   -7.2135   17.7392 H         1 <0>         0.1716
     66 H26        -0.5155   -8.1283   19.3092 H         1 <0>         0.0695
     67 H27         0.2583   -9.3958   20.2906 H         1 <0>         0.1226
     68 H28         1.2570   -8.2917   19.3148 H         1 <0>         0.0700
     69 H29        -0.8457  -11.8767   14.2816 H         1 <0>         0.0672
     70 H30         0.9267  -12.0402   14.2865 H         1 <0>         0.0676
     71 H31        -0.0790  -13.2281   15.1500 H         1 <0>         0.1194
     72 H32        -6.2758    0.0857    4.5972 H         1 <0>         0.4223
     73 H33         0.6401   -5.3874   16.1992 H         1 <0>         0.4475
@<TRIPOS>BOND
     1    1    2 1
     2    1   42 1
     3    1   43 1
     4    1   44 1
     5    2    7 1
     6    2    3 1
     7    2   72 1
     8    3    4 1
     9    3   45 1
    10    3   46 1
    11    4    5 1
    12    4   47 1
    13    4   48 1
    14    5    6 1
    15    5    8 1
    16    6    7 1
    17    6   49 1
    18    6   50 1
    19    7   51 1
    20    7   52 1
    21    8    9 1
    22    8   53 1
    23    8   54 1
    24    9   14 ar
    25    9   10 ar
    26   10   11 ar
    27   10   55 1
    28   11   12 ar
    29   11   16 1
    30   12   13 ar
    31   12   56 1
    32   13   14 ar
    33   13   57 1
    34   14   15 1
    35   16   17 1
    36   16   58 1
    37   17   26 2
    38   17   18 1
    39   18   19 1
    40   18   20 1
    41   20   25 ar
    42   20   21 ar
    43   21   22 ar
    44   21   59 1
    45   22   23 ar
    46   22   60 1
    47   23   24 ar
    48   23   27 1
    49   24   25 ar
    50   24   61 1
    51   25   26 1
    52   27   28 1
    53   28   33 ar
    54   28   29 ar
    55   29   30 ar
    56   29   62 1
    57   30   31 ar
    58   30   63 1
    59   31   32 ar
    60   31   73 1
    61   32   37 ar
    62   32   33 ar
    63   33   34 ar
    64   34   35 ar
    65   34   64 1
    66   35   36 ar
    67   35   40 1
    68   36   37 ar
    69   36   38 1
    70   37   65 1
    71   38   39 1
    72   39   66 1
    73   39   67 1
    74   39   68 1
    75   40   41 1
    76   41   69 1
    77   41   70 1
    78   41   71 1
@<TRIPOS>MOLECULE
CHEMBL221019
   48    51     0     0     0
SMALL
USER_CHARGES

@<TRIPOS>ATOM
      1 C1         -0.0483    1.5024    0.0098 C.3       1 <0>        -0.1278
      2 C2         -0.0195   -0.0043    0.0016 C.ar      1 <0>        -0.0219
      3 C3         -0.0178   -0.6868   -1.1984 C.ar      1 <0>        -0.1257
      4 C4          0.0080   -2.0672   -1.2152 C.ar      1 <0>        -0.0644
      5 C5          0.0326   -2.7841   -0.0161 C.ar      1 <0>        -0.1451
      6 C6          0.0315   -2.1035    1.1990 C.ar      1 <0>        -0.0180
      7 C7          0.0111   -0.7082    1.2095 C.ar      1 <0>        -0.0028
      8 C8          0.0152    0.0006    2.4538 C.1       1 <0>        -0.0584
      9 C9          0.0185    0.5817    3.4739 C.1       1 <0>        -0.1105
     10 C10         0.0225    1.2905    4.7181 C.ar      1 <0>         0.2086
     11 C11        -0.0104    2.7011    4.7220 C.ar      1 <0>         0.1060
     12 N1         -0.0076    3.3641    5.8523 N.ar      1 <0>        -0.4179
     13 C12         0.0267    2.7009    7.0158 C.ar      1 <0>         0.0798
     14 C13         0.0298    3.3904    8.2396 C.ar      1 <0>        -0.0841
     15 C14         0.0646    2.6929    9.4083 C.ar      1 <0>        -0.0919
     16 C15         0.0978    1.2996    9.4115 C.ar      1 <0>        -0.0949
     17 C16         0.0959    0.5972    8.2459 C.ar      1 <0>        -0.0807
     18 C17         0.0599    1.2831    7.0183 C.ar      1 <0>         0.0862
     19 N2          0.0517    0.6179    5.8595 N.ar      1 <0>        -0.4076
     20 C18         0.0593   -4.2621   -0.0372 C.2       1 <0>         0.5628
     21 O1          0.0806   -4.8846    1.0067 O.2       1 <0>        -0.5080
     22 N3          0.0598   -4.9193   -1.2139 N.am      1 <0>        -0.6691
     23 C19         0.1828   -6.3122   -1.2367 C.ar      1 <0>         0.1437
     24 C20         0.8871   -6.9321   -2.2611 C.ar      1 <0>        -0.1111
     25 C21         1.0071   -8.3076   -2.2805 C.ar      1 <0>        -0.0995
     26 C22         0.4266   -9.0680   -1.2816 C.ar      1 <0>        -0.0859
     27 C23        -0.2754   -8.4542   -0.2608 C.ar      1 <0>        -0.1640
     28 C24        -0.3939   -7.0783   -0.2322 C.ar      1 <0>        -0.0721
     29 C25        -0.9066   -9.2868    0.8252 C.3       1 <0>         0.5091
     30 F1         -0.6474  -10.6404    0.5852 F         1 <0>        -0.1761
     31 F2         -0.3695   -8.9217    2.0644 F         1 <0>        -0.1724
     32 F3         -2.2888   -9.0711    0.8343 F         1 <0>        -0.1756
     33 H1          0.9721    1.8854   -0.0029 H         1 <0>         0.0836
     34 H2         -0.5817    1.8604   -0.8708 H         1 <0>         0.0785
     35 H3         -0.5562    1.8513    0.9089 H         1 <0>         0.0738
     36 H4         -0.0371   -0.1383   -2.1286 H         1 <0>         0.1410
     37 H5          0.0089   -2.5943   -2.1579 H         1 <0>         0.1322
     38 H6          0.0505   -2.6529    2.1287 H         1 <0>         0.1464
     39 H7         -0.0377    3.2388    3.7857 H         1 <0>         0.1804
     40 H8          0.0050    4.4700    8.2533 H         1 <0>         0.1434
     41 H9          0.0668    3.2272   10.3469 H         1 <0>         0.1399
     42 H10         0.1258    0.7699   10.3522 H         1 <0>         0.1402
     43 H11         0.1223   -0.4824    8.2633 H         1 <0>         0.1434
     44 H12        -0.0250   -4.4263   -2.0449 H         1 <0>         0.4143
     45 H13         1.3400   -6.3389   -3.0418 H         1 <0>         0.1375
     46 H14         1.5545   -8.7902   -3.0766 H         1 <0>         0.1419
     47 H15         0.5216  -10.1437   -1.2992 H         1 <0>         0.1416
     48 H16        -0.9386   -6.5991    0.5679 H         1 <0>         0.1511
@<TRIPOS>BOND
     1    1    2 1
     2    1   33 1
     3    1   34 1
     4    1   35 1
     5    2    7 ar
     6    2    3 ar
     7    3    4 ar
     8    3   36 1
     9    4    5 ar
    10    4   37 1
    11    5    6 ar
    12    5   20 1
    13    6    7 ar
    14    6   38 1
    15    7    8 1
    16    8    9 3
    17    9   10 1
    18   10   19 ar
    19   10   11 ar
    20   11   12 ar
    21   11   39 1
    22   12   13 ar
    23   13   18 ar
    24   13   14 ar
    25   14   15 ar
    26   14   40 1
    27   15   16 ar
    28   15   41 1
    29   16   17 ar
    30   16   42 1
    31   17   18 ar
    32   17   43 1
    33   18   19 ar
    34   20   21 2
    35   20   22 am
    36   22   23 1
    37   22   44 1
    38   23   28 ar
    39   23   24 ar
    40   24   25 ar
    41   24   45 1
    42   25   26 ar
    43   25   46 1
    44   26   27 ar
    45   26   47 1
    46   27   28 ar
    47   27   29 1
    48   28   48 1
    49   29   30 1
    50   29   31 1
    51   29   32 1
@<TRIPOS>MOLECULE
CHEMBL397497
   62    67     0     0     0
SMALL
USER_CHARGES

@<TRIPOS>ATOM
      1 C1         -1.8393   -3.0721   -3.3341 C.3       1 <0>        -0.0455
      2 N1         -1.9650   -2.7404   -1.9086 N.4       1 <0>        -0.3878
      3 C2         -0.9325   -1.7625   -1.5408 C.3       1 <0>        -0.0016
      4 C3         -1.0749   -1.4025   -0.0604 C.3       1 <0>         0.0269
      5 N2         -0.9338   -2.6188    0.7525 N.3       1 <0>        -0.5292
      6 C4         -1.9456   -3.6170    0.3782 C.3       1 <0>         0.0259
      7 C5         -1.7960   -3.9588   -1.1059 C.3       1 <0>        -0.0017
      8 C6         -1.0082   -2.3057    2.1858 C.3       1 <0>         0.1004
      9 C7         -0.4678   -3.4655    2.9820 C.ar      1 <0>        -0.0657
     10 C8         -1.3178   -4.2181    3.7686 C.ar      1 <0>        -0.1058
     11 C9         -0.8191   -5.2867    4.5021 C.ar      1 <0>         0.1800
     12 C10         0.5340   -5.5956    4.4424 C.ar      1 <0>        -0.1298
     13 C11         1.3793   -4.8398    3.6544 C.ar      1 <0>        -0.0865
     14 C12         0.8785   -3.7788    2.9200 C.ar      1 <0>        -0.0289
     15 Cl1         1.9427   -2.8354    1.9244 Cl        1 <0>        -0.0586
     16 N3         -1.6774   -6.0503    5.2998 N.pl3     1 <0>        -0.6440
     17 C13        -2.9948   -6.2258    4.9248 C.2       1 <0>         0.5420
     18 N4         -3.5229   -5.7929    3.8078 N.2       1 <0>        -0.5293
     19 C14        -4.8374   -6.1390    3.7601 C.ar      1 <0>         0.0808
     20 C15        -5.8489   -5.9338    2.8183 C.ar      1 <0>        -0.0653
     21 C16        -7.1156   -6.4159    3.0575 C.ar      1 <0>        -0.1134
     22 C17        -7.3970   -7.1069    4.2322 C.ar      1 <0>         0.0914
     23 C18        -6.4045   -7.3174    5.1737 C.ar      1 <0>        -0.1077
     24 C19        -5.1241   -6.8371    4.9445 C.ar      1 <0>         0.0605
     25 N5         -3.9399   -6.8824    5.6614 N.pl3     1 <0>        -0.6129
     26 O1         -8.6529   -7.5771    4.4563 O.3       1 <0>        -0.2419
     27 C20        -9.4544   -6.8770    5.2978 C.ar      1 <0>         0.2102
     28 C21        -9.0284   -5.6819    5.8641 C.ar      1 <0>        -0.2846
     29 C22        -9.8749   -4.9967    6.7177 C.ar      1 <0>         0.1748
     30 N6        -11.0771   -5.4490    7.0086 N.ar      1 <0>        -0.5156
     31 C23       -11.5402   -6.5844    6.4988 C.ar      1 <0>         0.3164
     32 C24       -10.7407   -7.3339    5.6183 C.ar      1 <0>        -0.1777
     33 C25       -11.5344   -8.5033    5.2378 C.2       1 <0>        -0.1777
     34 C26       -12.7122   -8.3975    5.8728 C.2       1 <0>         0.0559
     35 N7        -12.7280   -7.2609    6.6376 N.pl3     1 <0>        -0.5776
     36 H1        -13.4726   -6.9706    7.1872 H         1 <0>         0.4247
     37 H2         -2.6062   -3.7968   -3.6075 H         1 <0>         0.1236
     38 H3         -1.9647   -2.1681   -3.9300 H         1 <0>         0.1234
     39 H4         -0.8536   -3.4977   -3.5225 H         1 <0>         0.1224
     40 H5          0.0537   -2.1919   -1.7170 H         1 <0>         0.1372
     41 H6         -1.0510   -0.8640   -2.1463 H         1 <0>         0.1347
     42 H7         -0.2996   -0.6881    0.2164 H         1 <0>         0.1230
     43 H8         -2.0560   -0.9605    0.1137 H         1 <0>         0.0610
     44 H9         -1.8054   -4.5183    0.9749 H         1 <0>         0.1270
     45 H10        -2.9410   -3.2116    0.5595 H         1 <0>         0.0618
     46 H11        -2.5546   -4.6885   -1.3889 H         1 <0>         0.1345
     47 H12        -0.8053   -4.3769   -1.2843 H         1 <0>         0.1365
     48 H13        -0.4162   -1.4146    2.3942 H         1 <0>         0.0998
     49 H14        -2.0464   -2.1257    2.4650 H         1 <0>         0.0614
     50 H15        -2.3693   -3.9756    3.8135 H         1 <0>         0.1500
     51 H16         0.9245   -6.4258    5.0121 H         1 <0>         0.1375
     52 H17         2.4313   -5.0792    3.6079 H         1 <0>         0.1408
     53 H18        -1.3474   -6.4565    6.1164 H         1 <0>         0.4250
     54 H19        -5.6373   -5.3977    1.9050 H         1 <0>         0.1348
     55 H20        -7.8966   -6.2566    2.3287 H         1 <0>         0.1413
     56 H21        -6.6268   -7.8538    6.0843 H         1 <0>         0.1339
     57 H22        -8.0464   -5.2919    5.6407 H         1 <0>         0.1395
     58 H23        -9.5413   -4.0680    7.1566 H         1 <0>         0.1643
     59 H24       -11.2307   -9.2986    4.5733 H         1 <0>         0.1539
     60 H25       -13.5228   -9.1074    5.7991 H         1 <0>         0.1828
     61 H26        -2.8776   -2.3469   -1.7343 H         1 <0>         0.4220
     62 H27        -3.8067   -7.3009    6.5263 H         1 <0>         0.4269
@<TRIPOS>BOND
     1    1    2 1
     2    1   37 1
     3    1   38 1
     4    1   39 1
     5    2    7 1
     6    2    3 1
     7    2   61 1
     8    3    4 1
     9    3   40 1
    10    3   41 1
    11    4    5 1
    12    4   42 1
    13    4   43 1
    14    5    6 1
    15    5    8 1
    16    6    7 1
    17    6   44 1
    18    6   45 1
    19    7   46 1
    20    7   47 1
    21    8    9 1
    22    8   48 1
    23    8   49 1
    24    9   14 ar
    25    9   10 ar
    26   10   11 ar
    27   10   50 1
    28   11   12 ar
    29   11   16 1
    30   12   13 ar
    31   12   51 1
    32   13   14 ar
    33   13   52 1
    34   14   15 1
    35   16   17 1
    36   16   53 1
    37   17   25 1
    38   17   18 2
    39   18   19 1
    40   19   24 ar
    41   19   20 ar
    42   20   21 ar
    43   20   54 1
    44   21   22 ar
    45   21   55 1
    46   22   23 ar
    47   22   26 1
    48   23   24 ar
    49   23   56 1
    50   24   25 1
    51   25   62 1
    52   26   27 1
    53   27   32 ar
    54   27   28 ar
    55   28   29 ar
    56   28   57 1
    57   29   30 ar
    58   29   58 1
    59   30   31 ar
    60   31   35 1
    61   31   32 ar
    62   32   33 1
    63   33   34 2
    64   33   59 1
    65   34   35 1
    66   34   60 1
    67   35   36 1
@<TRIPOS>MOLECULE
CHEMBL397497__1
   62    67     0     0     0
SMALL
USER_CHARGES

@<TRIPOS>ATOM
      1 C1         -1.2306   -3.0079   -2.8714 C.3       1 <0>        -0.0456
      2 N1         -1.5014   -2.7199   -1.4566 N.4       1 <0>        -0.3880
      3 C2         -0.5382   -1.7251   -0.9667 C.3       1 <0>        -0.0016
      4 C3         -0.8317   -1.4107    0.5019 C.3       1 <0>         0.0268
      5 N2         -0.7326   -2.6452    1.2934 N.3       1 <0>        -0.5286
      6 C4         -1.6740   -3.6595    0.7984 C.3       1 <0>         0.0262
      7 C5         -1.3735   -3.9553   -0.6726 C.3       1 <0>        -0.0017
      8 C6         -0.9525   -2.3746    2.7204 C.3       1 <0>         0.1002
      9 C7         -0.4576   -3.5418    3.5351 C.ar      1 <0>        -0.0655
     10 C8         -1.3540   -4.3190    4.2425 C.ar      1 <0>        -0.1067
     11 C9         -0.8973   -5.3947    4.9927 C.ar      1 <0>         0.1804
     12 C10         0.4605   -5.6861    5.0293 C.ar      1 <0>        -0.1305
     13 C11         1.3522   -4.9058    4.3202 C.ar      1 <0>        -0.0863
     14 C12         0.8937   -3.8375    3.5692 C.ar      1 <0>        -0.0291
     15 Cl1         2.0167   -2.8626    2.6736 Cl        1 <0>        -0.0584
     16 N3         -1.8026   -6.1831    5.7103 N.pl3     1 <0>        -0.6435
     17 C13        -3.0912   -6.3511    5.2452 C.2       1 <0>         0.5418
     18 N4         -4.0877   -7.0027    5.9135 N.pl3     1 <0>        -0.6128
     19 H1         -4.0171   -7.4225    6.7852 H         1 <0>         0.4273
     20 C14        -5.2197   -6.9520    5.1141 C.ar      1 <0>         0.0506
     21 C15        -6.5147   -7.4284    5.2518 C.ar      1 <0>        -0.0814
     22 C16        -7.4381   -7.2106    4.2509 C.ar      1 <0>        -0.1089
     23 C17        -7.0783   -6.5143    3.1009 C.ar      1 <0>         0.0850
     24 C18        -5.7922   -6.0334    2.9490 C.ar      1 <0>        -0.0883
     25 C19        -4.8485   -6.2483    3.9566 C.ar      1 <0>         0.0902
     26 N5         -3.5417   -5.9043    4.0993 N.2       1 <0>        -0.5292
     27 O1         -7.9978   -6.3065    2.1212 O.3       1 <0>        -0.2425
     28 C20        -7.9452   -7.0976    1.0201 C.ar      1 <0>         0.2118
     29 C21        -7.0185   -8.1280    0.9221 C.ar      1 <0>        -0.2838
     30 C22        -6.9960   -8.9132   -0.2171 C.ar      1 <0>         0.1747
     31 N6         -7.8321   -8.7087   -1.2139 N.ar      1 <0>        -0.5174
     32 C23        -8.7398   -7.7401   -1.1787 C.ar      1 <0>         0.3153
     33 C24        -8.8283   -6.9043   -0.0516 C.ar      1 <0>        -0.1787
     34 C25        -9.9164   -5.9637   -0.3228 C.2       1 <0>        -0.1772
     35 C26       -10.4042   -6.2718   -1.5346 C.2       1 <0>         0.0543
     36 N7         -9.7058   -7.3253   -2.0633 N.pl3     1 <0>        -0.5785
     37 H2         -9.8761   -7.7270   -2.9296 H         1 <0>         0.4242
     38 H3         -1.9462   -3.7451   -3.2356 H         1 <0>         0.1233
     39 H4         -1.3255   -2.0912   -3.4535 H         1 <0>         0.1235
     40 H5         -0.2193   -3.4010   -2.9751 H         1 <0>         0.1227
     41 H6          0.4727   -2.1224   -1.0582 H         1 <0>         0.1374
     42 H7         -0.6251   -0.8134   -1.5578 H         1 <0>         0.1348
     43 H8         -0.1078   -0.6836    0.8699 H         1 <0>         0.1232
     44 H9         -1.8376   -1.0006    0.5920 H         1 <0>         0.0609
     45 H10        -1.5646   -4.5731    1.3828 H         1 <0>         0.1264
     46 H11        -2.6937   -3.2865    0.8935 H         1 <0>         0.0615
     47 H12        -2.0798   -4.6971   -1.0456 H         1 <0>         0.1341
     48 H13        -0.3584   -4.3412   -0.7656 H         1 <0>         0.1370
     49 H14        -0.4088   -1.4746    3.0076 H         1 <0>         0.1000
     50 H15        -2.0173   -2.2296    2.9029 H         1 <0>         0.0612
     51 H16        -2.4090   -4.0900    4.2125 H         1 <0>         0.1500
     52 H17         0.8184   -6.5219    5.6122 H         1 <0>         0.1376
     53 H18         2.4079   -5.1319    4.3484 H         1 <0>         0.1408
     54 H19        -1.5249   -6.6117    6.5350 H         1 <0>         0.4251
     55 H20        -6.7997   -7.9698    6.1418 H         1 <0>         0.1365
     56 H21        -8.4460   -7.5828    4.3600 H         1 <0>         0.1439
     57 H22        -5.5171   -5.4939    2.0547 H         1 <0>         0.1329
     58 H23        -6.3224   -8.3140    1.7266 H         1 <0>         0.1407
     59 H24        -6.2746   -9.7136   -0.2907 H         1 <0>         0.1641
     60 H25       -10.2610   -5.1735    0.3278 H         1 <0>         0.1536
     61 H26       -11.2193   -5.7594   -2.0241 H         1 <0>         0.1822
     62 H27        -2.4378   -2.3564   -1.3609 H         1 <0>         0.4220
@<TRIPOS>BOND
     1    1    2 1
     2    1   38 1
     3    1   39 1
     4    1   40 1
     5    2    7 1
     6    2    3 1
     7    2   62 1
     8    3    4 1
     9    3   41 1
    10    3   42 1
    11    4    5 1
    12    4   43 1
    13    4   44 1
    14    5    6 1
    15    5    8 1
    16    6    7 1
    17    6   45 1
    18    6   46 1
    19    7   47 1
    20    7   48 1
    21    8    9 1
    22    8   49 1
    23    8   50 1
    24    9   14 ar
    25    9   10 ar
    26   10   11 ar
    27   10   51 1
    28   11   12 ar
    29   11   16 1
    30   12   13 ar
    31   12   52 1
    32   13   14 ar
    33   13   53 1
    34   14   15 1
    35   16   17 1
    36   16   54 1
    37   17   26 2
    38   17   18 1
    39   18   19 1
    40   18   20 1
    41   20   25 ar
    42   20   21 ar
    43   21   22 ar
    44   21   55 1
    45   22   23 ar
    46   22   56 1
    47   23   24 ar
    48   23   27 1
    49   24   25 ar
    50   24   57 1
    51   25   26 1
    52   27   28 1
    53   28   33 ar
    54   28   29 ar
    55   29   30 ar
    56   29   58 1
    57   30   31 ar
    58   30   59 1
    59   31   32 ar
    60   32   36 1
    61   32   33 ar
    62   33   34 1
    63   34   35 2
    64   34   60 1
    65   35   36 1
    66   35   61 1
    67   36   37 1
@<TRIPOS>MOLECULE
CHEMBL118400
   58    62     0     0     0
SMALL
USER_CHARGES

@<TRIPOS>ATOM
      1 C1         -0.0178    1.4648    0.0101 C.3       1 <0>        -0.0460
      2 N1          0.0021   -0.0041    0.0020 N.4       1 <0>        -0.3883
      3 C2         -1.3761   -0.5122    0.0107 C.3       1 <0>        -0.0030
      4 C3         -1.3560   -2.0421   -0.0167 C.3       1 <0>         0.0256
      5 N2         -0.6244   -2.5407    1.1564 N.3       1 <0>        -0.5391
      6 C4          0.7499   -2.0201    1.1745 C.3       1 <0>         0.0206
      7 C5          0.7125   -0.4904    1.1921 C.3       1 <0>        -0.0031
      8 C6         -0.6316   -4.0091    1.1963 C.3       1 <0>         0.0588
      9 C7         -0.0856   -4.4853    2.5439 C.3       1 <0>        -0.1328
     10 C8         -0.0931   -6.0148    2.5855 C.3       1 <0>         0.0900
     11 N3          0.4297   -6.4708    3.8758 N.am      1 <0>        -0.4975
     12 C9          1.7638   -6.6908    4.0153 C.2       1 <0>         0.1341
     13 C10         2.2790   -7.1112    5.1901 C.2       1 <0>        -0.2102
     14 C11         1.4236   -7.3268    6.2945 C.2       1 <0>         0.0710
     15 C12         0.0634   -7.0992    6.1429 C.2       1 <0>        -0.2218
     16 C13        -0.4187   -6.6590    4.9034 C.2       1 <0>         0.5176
     17 O1         -1.6123   -6.4494    4.7538 O.2       1 <0>        -0.5423
     18 C14         1.9699   -7.7884    7.5912 C.2       1 <0>        -0.1751
     19 C15         2.9256   -7.0096    8.2832 C.2       1 <0>         0.1994
     20 N4          3.4044   -7.4240    9.4306 N.2       1 <0>        -0.4465
     21 C16         3.0033   -8.5825    9.9676 C.2       1 <0>         0.2622
     22 C17         3.3475   -9.2415   11.1516 C.2       1 <0>        -0.1634
     23 C18         2.6085  -10.4274   11.1975 C.2       1 <0>         0.1126
     24 N5          1.8595  -10.5032   10.1232 N.2       1 <0>        -0.2988
     25 N6          2.0772   -9.3707    9.3305 N.pl3     1 <0>        -0.3137
     26 C19         1.5518   -8.9713    8.1375 C.2       1 <0>         0.1977
     27 C20         4.3181   -8.7698   12.1707 C.2       1 <0>        -0.0416
     28 C21         3.9759   -8.7406   13.5189 C.2       1 <0>        -0.1475
     29 C22         4.8877   -8.3042   14.4179 C.2       1 <0>        -0.1702
     30 S1          6.2849   -7.9121   13.3790 S.3       1 <0>         0.0405
     31 C23         5.5694   -8.3600   11.8062 C.2       1 <0>        -0.1516
     32 H1          1.0047    1.8421    0.0024 H         1 <0>         0.1245
     33 H2         -0.5450    1.8259   -0.8730 H         1 <0>         0.1248
     34 H3         -0.5280    1.8163    0.9069 H         1 <0>         0.1234
     35 H4         -1.8832   -0.1716    0.9134 H         1 <0>         0.1382
     36 H5         -1.9060   -0.1400   -0.8661 H         1 <0>         0.1369
     37 H6         -2.3783   -2.4196    0.0047 H         1 <0>         0.1251
     38 H7         -0.8610   -2.3831   -0.9260 H         1 <0>         0.0616
     39 H8          1.2641   -2.3816    2.0650 H         1 <0>         0.1239
     40 H9          1.2796   -2.3607    0.2848 H         1 <0>         0.0616
     41 H10         1.7310   -0.1020    1.1912 H         1 <0>         0.1361
     42 H11         0.1947   -0.1499    2.0888 H         1 <0>         0.1378
     43 H12        -1.6519   -4.3710    1.0694 H         1 <0>         0.0947
     44 H13        -0.0057   -4.3975    0.3929 H         1 <0>         0.0510
     45 H14         0.9347   -4.1235    2.6709 H         1 <0>         0.0692
     46 H15        -0.7115   -4.0969    3.3473 H         1 <0>         0.0876
     47 H16        -1.1134   -6.3766    2.4585 H         1 <0>         0.1059
     48 H17         0.5328   -6.4032    1.7821 H         1 <0>         0.0933
     49 H18         2.4210   -6.5273    3.1741 H         1 <0>         0.1653
     50 H19         3.3410   -7.2825    5.2857 H         1 <0>         0.1520
     51 H20        -0.6136   -7.2557    6.9697 H         1 <0>         0.1533
     52 H21         3.2618   -6.0721    7.8656 H         1 <0>         0.1827
     53 H22         2.6479  -11.1616   11.9886 H         1 <0>         0.2049
     54 H23         0.8196   -9.5813    7.6294 H         1 <0>         0.1835
     55 H24         2.9968   -9.0613   13.8429 H         1 <0>         0.1342
     56 H25         4.7940   -8.2154   15.4902 H         1 <0>         0.1875
     57 H26         6.0107   -8.3166   10.8214 H         1 <0>         0.1812
     58 H27         0.4748   -0.3293   -0.8280 H         1 <0>         0.4223
@<TRIPOS>BOND
     1    1    2 1
     2    1   32 1
     3    1   33 1
     4    1   34 1
     5    2    7 1
     6    2    3 1
     7    2   58 1
     8    3    4 1
     9    3   35 1
    10    3   36 1
    11    4    5 1
    12    4   37 1
    13    4   38 1
    14    5    6 1
    15    5    8 1
    16    6    7 1
    17    6   39 1
    18    6   40 1
    19    7   41 1
    20    7   42 1
    21    8    9 1
    22    8   43 1
    23    8   44 1
    24    9   10 1
    25    9   45 1
    26    9   46 1
    27   10   11 1
    28   10   47 1
    29   10   48 1
    30   11   16 am
    31   11   12 1
    32   12   13 2
    33   12   49 1
    34   13   14 1
    35   13   50 1
    36   14   15 2
    37   14   18 1
    38   15   16 1
    39   15   51 1
    40   16   17 2
    41   18   26 2
    42   18   19 1
    43   19   20 2
    44   19   52 1
    45   20   21 1
    46   21   25 1
    47   21   22 2
    48   22   23 1
    49   22   27 1
    50   23   24 2
    51   23   53 1
    52   24   25 1
    53   25   26 1
    54   26   54 1
    55   27   31 2
    56   27   28 1
    57   28   29 2
    58   28   55 1
    59   29   30 1
    60   29   56 1
    61   30   31 1
    62   31   57 1
@<TRIPOS>MOLECULE
CHEMBL118400__1
   58    62     0     0     0
SMALL
USER_CHARGES

@<TRIPOS>ATOM
      1 C1         -0.0178    1.4648    0.0101 C.3       1 <0>         0.0190
      2 N1          0.0021   -0.0041    0.0020 N.3       1 <0>        -0.5433
      3 C2         -1.3607   -0.5489   -0.0764 C.3       1 <0>         0.0233
      4 C3         -1.2932   -2.0762   -0.1426 C.3       1 <0>        -0.0016
      5 N2         -0.6107   -2.5886    1.0529 N.4       1 <0>        -0.3867
      6 C4          0.7570   -2.0553    1.1043 C.3       1 <0>        -0.0065
      7 C5          0.7065   -0.5278    1.1808 C.3       1 <0>         0.0241
      8 C6         -0.5621   -4.0557    0.9977 C.3       1 <0>        -0.0039
      9 C7          0.0360   -4.5955    2.2984 C.3       1 <0>        -0.1677
     10 C8          0.0866   -6.1236    2.2409 C.3       1 <0>         0.0962
     11 N3          0.6594   -6.6404    3.4863 N.am      1 <0>        -0.5012
     12 C9          2.0039   -6.8169    3.5799 C.2       1 <0>         0.1262
     13 C10         2.5647   -7.2912    4.7125 C.2       1 <0>        -0.2007
     14 C11         1.7467   -7.6101    5.8204 C.2       1 <0>         0.0759
     15 C12         0.3756   -7.4263    5.7158 C.2       1 <0>        -0.2217
     16 C13        -0.1545   -6.9268    4.5191 C.2       1 <0>         0.5190
     17 O1         -1.3586   -6.7547    4.4114 O.2       1 <0>        -0.5438
     18 C14         2.3433   -8.1319    7.0713 C.2       1 <0>        -0.1813
     19 C15         3.2869   -7.3624    7.7898 C.2       1 <0>         0.1984
     20 N4          3.8104   -7.8304    8.8963 N.2       1 <0>        -0.4443
     21 C16         3.4668   -9.0355    9.3663 C.2       1 <0>         0.2608
     22 C17         3.8658   -9.7549   10.4967 C.2       1 <0>        -0.1596
     23 C18         3.1731  -10.9693   10.4829 C.2       1 <0>         0.1137
     24 N5          2.3998  -11.0053    9.4238 N.2       1 <0>        -0.2975
     25 N6          2.5545   -9.8168    8.7013 N.pl3     1 <0>        -0.3147
     26 C19         1.9839   -9.3627    7.5494 C.2       1 <0>         0.2009
     27 C20         4.8443   -9.3120   11.5212 C.2       1 <0>        -0.0434
     28 C21         4.5362   -9.3824   12.8761 C.2       1 <0>        -0.1482
     29 C22         5.4541   -8.9691   13.7799 C.2       1 <0>        -0.1695
     30 S1          6.8083   -8.4574   12.7361 S.3       1 <0>         0.0434
     31 C23         6.0695   -8.8313   11.1548 C.2       1 <0>        -0.1516
     32 H1          1.0047    1.8421    0.0024 H         1 <0>         0.0848
     33 H2         -0.5450    1.8259   -0.8730 H         1 <0>         0.0845
     34 H3         -0.5280    1.8163    0.9069 H         1 <0>         0.0400
     35 H4         -1.9242   -0.2477    0.8067 H         1 <0>         0.0610
     36 H5         -1.8539   -0.1676   -0.9705 H         1 <0>         0.1250
     37 H6         -2.3035   -2.4830   -0.1865 H         1 <0>         0.1374
     38 H7         -0.7413   -2.3773   -1.0330 H         1 <0>         0.1390
     39 H8          1.2666   -2.4465    1.9848 H         1 <0>         0.1348
     40 H9          1.2983   -2.3564    0.2075 H         1 <0>         0.1393
     41 H10         1.7215   -0.1310    1.2040 H         1 <0>         0.1242
     42 H11         0.1771   -0.2262    2.0846 H         1 <0>         0.0606
     43 H12        -1.5711   -4.4482    0.8715 H         1 <0>         0.1373
     44 H13         0.0569   -4.3674    0.1563 H         1 <0>         0.1357
     45 H14         1.0451   -4.2031    2.4246 H         1 <0>         0.0934
     46 H15        -0.5829   -4.2839    3.1397 H         1 <0>         0.0970
     47 H16        -0.9224   -6.5160    2.1146 H         1 <0>         0.1124
     48 H17         0.7056   -6.4352    1.3995 H         1 <0>         0.1040
     49 H18         2.6325   -6.5745    2.7359 H         1 <0>         0.1686
     50 H19         3.6345   -7.4268    4.7719 H         1 <0>         0.1550
     51 H20        -0.2735   -7.6615    6.5463 H         1 <0>         0.1553
     52 H21         3.5769   -6.3878    7.4261 H         1 <0>         0.1823
     53 H22         3.2603  -11.7504   11.2235 H         1 <0>         0.2058
     54 H23         1.2620   -9.9670    7.0200 H         1 <0>         0.1834
     55 H24         3.5785   -9.7609   13.2014 H         1 <0>         0.1343
     56 H25         5.3849   -8.9528   14.8575 H         1 <0>         0.1879
     57 H26         6.4833   -8.7079   10.1649 H         1 <0>         0.1813
     58 H27        -1.1152   -2.2999    1.8777 H         1 <0>         0.4221
@<TRIPOS>BOND
     1    1    2 1
     2    1   32 1
     3    1   33 1
     4    1   34 1
     5    2    7 1
     6    2    3 1
     7    3    4 1
     8    3   35 1
     9    3   36 1
    10    4    5 1
    11    4   37 1
    12    4   38 1
    13    5    6 1
    14    5    8 1
    15    5   58 1
    16    6    7 1
    17    6   39 1
    18    6   40 1
    19    7   41 1
    20    7   42 1
    21    8    9 1
    22    8   43 1
    23    8   44 1
    24    9   10 1
    25    9   45 1
    26    9   46 1
    27   10   11 1
    28   10   47 1
    29   10   48 1
    30   11   16 am
    31   11   12 1
    32   12   13 2
    33   12   49 1
    34   13   14 1
    35   13   50 1
    36   14   15 2
    37   14   18 1
    38   15   16 1
    39   15   51 1
    40   16   17 2
    41   18   26 2
    42   18   19 1
    43   19   20 2
    44   19   52 1
    45   20   21 1
    46   21   25 1
    47   21   22 2
    48   22   23 1
    49   22   27 1
    50   23   24 2
    51   23   53 1
    52   24   25 1
    53   25   26 1
    54   26   54 1
    55   27   31 2
    56   27   28 1
    57   28   29 2
    58   28   55 1
    59   29   30 1
    60   29   56 1
    61   30   31 1
    62   31   57 1
@<TRIPOS>MOLECULE
CHEMBL410093
   45    49     0     0     0
SMALL
USER_CHARGES

@<TRIPOS>ATOM
      1 C1          0.1755    1.4990    0.0914 C.ar      1 <0>        -0.1292
      2 C2          1.3952    2.1054    0.0481 C.ar      1 <0>        -0.0628
      3 C3          2.5667    1.3306   -0.0137 C.ar      1 <0>        -0.0471
      4 C4          3.8347    1.9340   -0.0591 C.ar      1 <0>        -0.1038
      5 C5          4.9531    1.1516   -0.1184 C.ar      1 <0>         0.1025
      6 C6          4.8520   -0.2425   -0.1350 C.ar      1 <0>        -0.1056
      7 C7          3.6370   -0.8555   -0.0921 C.ar      1 <0>        -0.1005
      8 C8          2.4692   -0.0823   -0.0303 C.ar      1 <0>        -0.0071
      9 C9          1.1889   -0.6888    0.0157 C.ar      1 <0>        -0.1299
     10 C10         0.0597    0.1149    0.0761 C.ar      1 <0>        -0.0642
     11 C11         1.0587   -2.1573    0.0000 C.2       1 <0>         0.5668
     12 O1          2.0526   -2.8564    0.0477 O.2       1 <0>        -0.5063
     13 N1         -0.1619   -2.7249   -0.0672 N.am      1 <0>        -0.6654
     14 C12        -0.2947   -4.1131    0.0427 C.ar      1 <0>         0.1531
     15 C13        -1.3772   -4.7569   -0.5426 C.ar      1 <0>        -0.1371
     16 C14        -1.5057   -6.1275   -0.4330 C.ar      1 <0>        -0.0875
     17 C15        -0.5572   -6.8594    0.2596 C.ar      1 <0>        -0.0526
     18 C16         0.5222   -6.2204    0.8442 C.ar      1 <0>        -0.0873
     19 C17         0.6588   -4.8507    0.7324 C.ar      1 <0>        -0.1167
     20 Cl1        -0.7220   -8.5822    0.3960 Cl        1 <0>        -0.0689
     21 O2          6.1792    1.7360   -0.1622 O.3       1 <0>        -0.2366
     22 C18         6.9197    1.5768   -1.2851 C.ar      1 <0>         0.4124
     23 C19         8.2334    2.0597   -1.3532 C.ar      1 <0>        -0.2219
     24 C20         9.1253    2.7692   -0.4377 C.2       1 <0>        -0.1576
     25 C21        10.2829    2.9581   -1.0918 C.2       1 <0>         0.0494
     26 N2         10.1977    2.4244   -2.3516 N.pl3     1 <0>        -0.5672
     27 H1         10.9093    2.4381   -3.0106 H         1 <0>         0.4268
     28 C22         8.9622    1.8695   -2.5428 C.ar      1 <0>         0.3408
     29 N3          8.3723    1.2388   -3.5563 N.ar      1 <0>        -0.5461
     30 C23         7.1359    0.8036   -3.4473 C.ar      1 <0>         0.3559
     31 N4          6.4206    0.9543   -2.3467 N.ar      1 <0>        -0.5806
     32 H2         -0.7167    2.1054    0.1430 H         1 <0>         0.1357
     33 H3          1.4620    3.1832    0.0610 H         1 <0>         0.1364
     34 H4          3.9247    3.0102   -0.0475 H         1 <0>         0.1394
     35 H5          5.7495   -0.8414   -0.1829 H         1 <0>         0.1278
     36 H6          3.5731   -1.9335   -0.1059 H         1 <0>         0.1746
     37 H7         -0.9192   -0.3401    0.1117 H         1 <0>         0.1294
     38 H8         -0.9483   -2.1708   -0.1917 H         1 <0>         0.4132
     39 H9         -2.1181   -4.1861   -1.0827 H         1 <0>         0.1361
     40 H10        -2.3473   -6.6287   -0.8880 H         1 <0>         0.1386
     41 H11         1.2608   -6.7940    1.3845 H         1 <0>         0.1379
     42 H12         1.5037   -4.3531    1.1850 H         1 <0>         0.1533
     43 H13         8.8970    3.0818    0.5705 H         1 <0>         0.1589
     44 H14        11.1510    3.4562   -0.6860 H         1 <0>         0.1869
     45 H15         6.6892    0.2966   -4.2898 H         1 <0>         0.2060
@<TRIPOS>BOND
     1    1   10 ar
     2    1    2 ar
     3    1   32 1
     4    2    3 ar
     5    2   33 1
     6    3    8 ar
     7    3    4 ar
     8    4    5 ar
     9    4   34 1
    10    5    6 ar
    11    5   21 1
    12    6    7 ar
    13    6   35 1
    14    7    8 ar
    15    7   36 1
    16    8    9 ar
    17    9   10 ar
    18    9   11 1
    19   10   37 1
    20   11   12 2
    21   11   13 am
    22   13   14 1
    23   13   38 1
    24   14   19 ar
    25   14   15 ar
    26   15   16 ar
    27   15   39 1
    28   16   17 ar
    29   16   40 1
    30   17   18 ar
    31   17   20 1
    32   18   19 ar
    33   18   41 1
    34   19   42 1
    35   21   22 1
    36   22   31 ar
    37   22   23 ar
    38   23   28 ar
    39   23   24 1
    40   24   25 2
    41   24   43 1
    42   25   26 1
    43   25   44 1
    44   26   27 1
    45   26   28 1
    46   28   29 ar
    47   29   30 ar
    48   30   31 ar
    49   30   45 1
@<TRIPOS>MOLECULE
CHEMBL402036
   56    59     0     0     0
SMALL
USER_CHARGES

@<TRIPOS>ATOM
      1 C1         -0.9447    1.4384    0.1516 C.3       1 <0>         0.0900
      2 N1         -0.6103    0.0170    0.2699 N.am      1 <0>        -0.6122
      3 C2         -0.9552   -0.7176    1.4896 C.3       1 <0>         0.0598
      4 C3          0.0146   -0.6148   -0.7434 C.2       1 <0>         0.5999
      5 O1          0.3846    0.0142   -1.7163 O.2       1 <0>        -0.5104
      6 C4          0.2492   -2.0660   -0.6725 C.2       1 <0>        -0.1721
      7 C5          1.0046   -2.8441   -1.4937 C.2       1 <0>        -0.0568
      8 C6          1.1039   -4.2263   -1.2554 C.ar      1 <0>         0.1390
      9 C7          0.3805   -4.7006   -0.1390 C.ar      1 <0>        -0.2083
     10 S1         -0.3806   -3.2383    0.5166 S.3       1 <0>         0.1338
     11 C8          0.3840   -6.0399    0.2191 C.ar      1 <0>         0.2067
     12 C9          1.1289   -6.9200   -0.5594 C.ar      1 <0>        -0.2228
     13 C10         1.8246   -6.4124   -1.6469 C.ar      1 <0>         0.1596
     14 N2          1.8038   -5.1441   -1.9624 N.ar      1 <0>        -0.4668
     15 O2         -0.3167   -6.4785    1.2956 O.3       1 <0>        -0.2368
     16 C11        -0.3566   -7.8178    1.5290 C.ar      1 <0>         0.0475
     17 C12        -1.4752   -8.5520    1.1645 C.ar      1 <0>        -0.0766
     18 C13        -1.5169   -9.9120    1.4014 C.ar      1 <0>        -0.0694
     19 C14        -0.4385  -10.5456    2.0050 C.ar      1 <0>         0.1655
     20 C15         0.6822   -9.8116    2.3699 C.ar      1 <0>        -0.1470
     21 C16         0.7257   -8.4511    2.1273 C.ar      1 <0>         0.1016
     22 F1          1.8178   -7.7368    2.4770 F         1 <0>        -0.1210
     23 N3         -0.4816  -11.9245    2.2459 N.pl3     1 <0>        -0.6256
     24 C17        -0.9942  -12.7552    1.3167 C.2       1 <0>         0.5065
     25 S2         -1.4633  -12.1443   -0.2123 S.2       1 <0>        -0.4706
     26 N4         -1.1377  -14.0670    1.5911 N.am      1 <0>        -0.6410
     27 C18        -1.6504  -14.8977    0.6619 C.2       1 <0>         0.4828
     28 O3         -1.9825  -14.4651   -0.4209 O.2       1 <0>        -0.3885
     29 C19        -1.8107  -16.3644    0.9688 C.3       1 <0>        -0.0932
     30 C20        -2.4010  -17.0662   -0.2271 C.ar      1 <0>        -0.0804
     31 C21        -3.7729  -17.1746   -0.3573 C.ar      1 <0>        -0.1012
     32 C22        -4.3143  -17.8184   -1.4543 C.ar      1 <0>        -0.1182
     33 C23        -3.4838  -18.3533   -2.4213 C.ar      1 <0>        -0.1128
     34 C24        -2.1119  -18.2441   -2.2915 C.ar      1 <0>        -0.1181
     35 C25        -1.5706  -17.5966   -1.1967 C.ar      1 <0>        -0.1013
     36 H1         -1.4424    1.7716    1.0623 H         1 <0>         0.0819
     37 H2         -0.0317    2.0154    0.0046 H         1 <0>         0.0678
     38 H3         -1.6088    1.5858   -0.7001 H         1 <0>         0.0669
     39 H4         -1.9058   -1.2317    1.3476 H         1 <0>         0.0694
     40 H5         -0.1759   -1.4482    1.7063 H         1 <0>         0.0806
     41 H6         -1.0405   -0.0195    2.3223 H         1 <0>         0.0932
     42 H7          1.5274   -2.4007   -2.3282 H         1 <0>         0.1608
     43 H8          1.1650   -7.9731   -0.3225 H         1 <0>         0.1505
     44 H9          2.4048   -7.0902   -2.2554 H         1 <0>         0.1703
     45 H10        -2.3144   -8.0600    0.6954 H         1 <0>         0.1529
     46 H11        -2.3886  -10.4829    1.1176 H         1 <0>         0.1593
     47 H12         1.5210  -10.3037    2.8396 H         1 <0>         0.1499
     48 H13        -0.1424  -12.2816    3.0815 H         1 <0>         0.4123
     49 H14        -0.8719  -14.4131    2.4574 H         1 <0>         0.4127
     50 H15        -0.8367  -16.7960    1.1992 H         1 <0>         0.1093
     51 H16        -2.4738  -16.4860    1.8253 H         1 <0>         0.1094
     52 H17        -4.4217  -16.7567    0.3981 H         1 <0>         0.1202
     53 H18        -5.3862  -17.9037   -1.5557 H         1 <0>         0.1239
     54 H19        -3.9068  -18.8569   -3.2780 H         1 <0>         0.1233
     55 H20        -1.4631  -18.6623   -3.0468 H         1 <0>         0.1239
     56 H21        -0.4989  -17.5080   -1.0972 H         1 <0>         0.1202
@<TRIPOS>BOND
     1    1    2 1
     2    1   36 1
     3    1   37 1
     4    1   38 1
     5    2    3 1
     6    2    4 am
     7    3   39 1
     8    3   40 1
     9    3   41 1
    10    4    5 2
    11    4    6 1
    12    6   10 1
    13    6    7 2
    14    7    8 1
    15    7   42 1
    16    8   14 ar
    17    8    9 ar
    18    9   10 1
    19    9   11 ar
    20   11   12 ar
    21   11   15 1
    22   12   13 ar
    23   12   43 1
    24   13   14 ar
    25   13   44 1
    26   15   16 1
    27   16   21 ar
    28   16   17 ar
    29   17   18 ar
    30   17   45 1
    31   18   19 ar
    32   18   46 1
    33   19   20 ar
    34   19   23 1
    35   20   21 ar
    36   20   47 1
    37   21   22 1
    38   23   24 1
    39   23   48 1
    40   24   25 2
    41   24   26 1
    42   26   27 am
    43   26   49 1
    44   27   28 2
    45   27   29 1
    46   29   30 1
    47   29   50 1
    48   29   51 1
    49   30   35 ar
    50   30   31 ar
    51   31   32 ar
    52   31   52 1
    53   32   33 ar
    54   32   53 1
    55   33   34 ar
    56   33   54 1
    57   34   35 ar
    58   34   55 1
    59   35   56 1
@<TRIPOS>MOLECULE
CHEMBL117052
   49    53     0     0     0
SMALL
USER_CHARGES

@<TRIPOS>ATOM
      1 C1         -0.1748    1.3094   -0.0336 C.ar      1 <0>        -0.1485
      2 C2          0.9967    2.0525    0.0220 C.ar      1 <0>        -0.0495
      3 C3          2.2237    1.4269    0.0574 C.ar      1 <0>        -0.1673
      4 C4          2.2951    0.0365    0.0380 C.ar      1 <0>         0.1954
      5 C5          1.1063   -0.7146   -0.0178 C.ar      1 <0>        -0.1396
      6 C6         -0.1309   -0.0546   -0.0536 C.ar      1 <0>        -0.0489
      7 C7          1.1624   -2.1309   -0.0382 C.2       1 <0>         0.0175
      8 C8          2.3919   -2.7545   -0.0027 C.2       1 <0>        -0.1526
      9 C9          3.6093   -1.9373    0.0552 C.2       1 <0>         0.5478
     10 N1          3.5221   -0.5940    0.0738 N.am      1 <0>        -0.6265
     11 O1          4.7014   -2.4756    0.0870 O.2       1 <0>        -0.5197
     12 C10         2.4822   -4.2275   -0.0221 C.2       1 <0>         0.1425
     13 C11         2.9558   -4.9965    0.9916 C.2       1 <0>        -0.1568
     14 C12         2.8639   -6.3869    0.5478 C.ar      1 <0>        -0.1186
     15 C13         3.1901   -7.6096    1.1340 C.ar      1 <0>        -0.0603
     16 C14         2.9737   -8.7865    0.4242 C.ar      1 <0>        -0.1720
     17 C15         2.4322   -8.7376   -0.8682 C.ar      1 <0>        -0.0414
     18 C16         2.1122   -7.5437   -1.4441 C.ar      1 <0>        -0.1293
     19 C17         2.3200   -6.3520   -0.7527 C.ar      1 <0>         0.1348
     20 N2          2.0938   -5.0330   -1.0686 N.pl3     1 <0>        -0.5812
     21 H1          1.7186   -4.7169   -1.9054 H         1 <0>         0.4198
     22 C18         3.3149  -10.0880    1.0322 C.2       1 <0>         0.5915
     23 O2          2.9931  -11.1211    0.4777 O.2       1 <0>        -0.5192
     24 N3          3.9831  -10.1309    2.2019 N.am      1 <0>        -0.6223
     25 C19         4.3304   -8.9692    3.0333 C.3       1 <0>         0.0871
     26 C20         5.1107   -9.4974    4.2555 C.3       1 <0>        -0.1515
     27 C21         5.6502  -10.8647    3.7590 C.3       1 <0>         0.0045
     28 C22         4.4811  -11.3510    2.8627 C.3       1 <0>         0.0951
     29 N4          5.8667  -11.7851    4.8832 N.4       1 <0>        -0.6270
     30 H2         -1.1290    1.8148   -0.0566 H         1 <0>         0.1353
     31 H3          0.9456    3.1312    0.0372 H         1 <0>         0.1377
     32 H4          3.1291    2.0142    0.0998 H         1 <0>         0.1381
     33 H5         -1.0471   -0.6248   -0.0966 H         1 <0>         0.1383
     34 H6          0.2543   -2.7139   -0.0806 H         1 <0>         0.1463
     35 H7          3.3293   -4.6481    1.9432 H         1 <0>         0.1513
     36 H8          3.6073   -7.6425    2.1296 H         1 <0>         0.1546
     37 H9          2.2672   -9.6551   -1.4135 H         1 <0>         0.1400
     38 H10         1.6958   -7.5217   -2.4404 H         1 <0>         0.1321
     39 H11         4.9545   -8.2797    2.4648 H         1 <0>         0.1011
     40 H12         3.4223   -8.4645    3.3631 H         1 <0>         0.1010
     41 H13         5.9325   -8.8271    4.5075 H         1 <0>         0.1171
     42 H14         4.4459   -9.6319    5.1088 H         1 <0>         0.1031
     43 H15         6.5644  -10.7369    3.1792 H         1 <0>         0.1626
     44 H16         3.6959  -11.8008    3.4703 H         1 <0>         0.0893
     45 H17         4.8431  -12.0632    2.1212 H         1 <0>         0.1082
     46 H18         4.9938  -11.9377    5.3659 H         1 <0>         0.4358
     47 H19         6.2167  -12.6650    4.5350 H         1 <0>         0.4414
     48 H20         4.3324   -0.0623    0.1124 H         1 <0>         0.4210
     49 H21         6.5382  -11.3848    5.5211 H         1 <0>         0.4420
@<TRIPOS>BOND
     1    1    6 ar
     2    1    2 ar
     3    1   30 1
     4    2    3 ar
     5    2   31 1
     6    3    4 ar
     7    3   32 1
     8    4   10 1
     9    4    5 ar
    10    5    6 ar
    11    5    7 1
    12    6   33 1
    13    7    8 2
    14    7   34 1
    15    8    9 1
    16    8   12 1
    17    9   10 am
    18    9   11 2
    19   10   48 1
    20   12   20 1
    21   12   13 2
    22   13   14 1
    23   13   35 1
    24   14   19 ar
    25   14   15 ar
    26   15   16 ar
    27   15   36 1
    28   16   17 ar
    29   16   22 1
    30   17   18 ar
    31   17   37 1
    32   18   19 ar
    33   18   38 1
    34   19   20 1
    35   20   21 1
    36   22   23 2
    37   22   24 am
    38   24   28 1
    39   24   25 1
    40   25   26 1
    41   25   39 1
    42   25   40 1
    43   26   27 1
    44   26   41 1
    45   26   42 1
    46   27   28 1
    47   27   29 1
    48   27   43 1
    49   28   44 1
    50   28   45 1
    51   29   46 1
    52   29   47 1
    53   29   49 1
@<TRIPOS>MOLECULE
CHEMBL117052__1
   49    53     0     0     0
SMALL
USER_CHARGES

@<TRIPOS>ATOM
      1 C1         -0.0560    1.3416   -0.0704 C.ar      1 <0>        -0.1486
      2 C2          1.1244    2.0716   -0.0321 C.ar      1 <0>        -0.0495
      3 C3          2.3445    1.4322   -0.0057 C.ar      1 <0>        -0.1674
      4 C4          2.3999    0.0409   -0.0168 C.ar      1 <0>         0.1955
      5 C5          1.2021   -0.6968   -0.0551 C.ar      1 <0>        -0.1396
      6 C6         -0.0278   -0.0229   -0.0820 C.ar      1 <0>        -0.0490
      7 C7          1.2418   -2.1138   -0.0669 C.2       1 <0>         0.0174
      8 C8          2.4644   -2.7511   -0.0404 C.2       1 <0>        -0.1525
      9 C9          3.6916   -1.9476   -0.0007 C.2       1 <0>         0.5477
     10 N1          3.6199   -0.6033    0.0100 N.am      1 <0>        -0.6265
     11 O1          4.7778   -2.4982    0.0229 O.2       1 <0>        -0.5194
     12 C10         2.5377   -4.2252   -0.0512 C.2       1 <0>         0.1425
     13 C11         3.0133   -4.9931    0.9624 C.2       1 <0>        -0.1568
     14 C12         2.9009   -6.3851    0.5286 C.ar      1 <0>        -0.1186
     15 C13         3.2195   -7.6077    1.1192 C.ar      1 <0>        -0.0607
     16 C14         2.9820   -8.7866    0.4194 C.ar      1 <0>        -0.1721
     17 C15         2.4274   -8.7397   -0.8675 C.ar      1 <0>        -0.0413
     18 C16         2.1148   -7.5459   -1.4476 C.ar      1 <0>        -0.1293
     19 C17         2.3435   -6.3523   -0.7662 C.ar      1 <0>         0.1348
     20 N2          2.1290   -5.0328   -1.0883 N.pl3     1 <0>        -0.5812
     21 H1          1.7485   -4.7178   -1.9231 H         1 <0>         0.4198
     22 C18         3.3149  -10.0880    1.0322 C.2       1 <0>         0.5919
     23 O2          2.9862  -11.1210    0.4817 O.2       1 <0>        -0.5195
     24 N3          3.9831  -10.1309    2.2019 N.am      1 <0>        -0.6220
     25 C19         4.3304   -8.9692    3.0333 C.3       1 <0>         0.0870
     26 C20         5.0635   -9.5024    4.2823 C.3       1 <0>        -0.1513
     27 C21         4.5896  -10.9778    4.3600 C.3       1 <0>         0.0046
     28 C22         4.4811  -11.3510    2.8627 C.3       1 <0>         0.0937
     29 N4          5.5846  -11.8152    5.0431 N.4       1 <0>        -0.6268
     30 H2         -1.0046    1.8577   -0.0865 H         1 <0>         0.1352
     31 H3          1.0858    3.1509   -0.0234 H         1 <0>         0.1377
     32 H4          3.2569    2.0094    0.0233 H         1 <0>         0.1381
     33 H5         -0.9509   -0.5828   -0.1115 H         1 <0>         0.1382
     34 H6          0.3267   -2.6866   -0.0958 H         1 <0>         0.1463
     35 H7          3.4010   -4.6429    1.9076 H         1 <0>         0.1513
     36 H8          3.6469   -7.6391    2.1105 H         1 <0>         0.1549
     37 H9          2.2461   -9.6587   -1.4050 H         1 <0>         0.1401
     38 H10         1.6881   -7.5255   -2.4396 H         1 <0>         0.1321
     39 H11         4.9852   -8.2980    2.4775 H         1 <0>         0.1028
     40 H12         3.4239   -8.4428    3.3321 H         1 <0>         0.0995
     41 H13         6.1438   -9.4510    4.1466 H         1 <0>         0.1036
     42 H14         4.7590   -8.9521    5.1725 H         1 <0>         0.1170
     43 H15         3.6181  -11.0508    4.8487 H         1 <0>         0.1619
     44 H16         3.7764  -12.1712    2.7258 H         1 <0>         0.1097
     45 H17         5.4610  -11.6222    2.4698 H         1 <0>         0.0884
     46 H18         5.7268  -11.4712    5.9809 H         1 <0>         0.4421
     47 H19         5.2538  -12.7676    5.0806 H         1 <0>         0.4414
     48 H20         4.4366   -0.0807    0.0366 H         1 <0>         0.4210
     49 H21         6.4568  -11.7818    4.5368 H         1 <0>         0.4360
@<TRIPOS>BOND
     1    1    6 ar
     2    1    2 ar
     3    1   30 1
     4    2    3 ar
     5    2   31 1
     6    3    4 ar
     7    3   32 1
     8    4   10 1
     9    4    5 ar
    10    5    6 ar
    11    5    7 1
    12    6   33 1
    13    7    8 2
    14    7   34 1
    15    8    9 1
    16    8   12 1
    17    9   10 am
    18    9   11 2
    19   10   48 1
    20   12   20 1
    21   12   13 2
    22   13   14 1
    23   13   35 1
    24   14   19 ar
    25   14   15 ar
    26   15   16 ar
    27   15   36 1
    28   16   17 ar
    29   16   22 1
    30   17   18 ar
    31   17   37 1
    32   18   19 ar
    33   18   38 1
    34   19   20 1
    35   20   21 1
    36   22   23 2
    37   22   24 am
    38   24   28 1
    39   24   25 1
    40   25   26 1
    41   25   39 1
    42   25   40 1
    43   26   27 1
    44   26   41 1
    45   26   42 1
    46   27   28 1
    47   27   29 1
    48   27   43 1
    49   28   44 1
    50   28   45 1
    51   29   46 1
    52   29   47 1
    53   29   49 1
@<TRIPOS>MOLECULE
CHEMBL372793
   59    62     0     0     0
SMALL
USER_CHARGES

@<TRIPOS>ATOM
      1 C1          3.2244    1.7288    5.9627 C.3       1 <0>         0.0119
      2 N1          3.2857    0.2756    5.7874 N.pl3     1 <0>        -0.3241
      3 C2          4.4809   -0.3369    5.6346 C.ar      1 <0>         0.0005
      4 C3          4.7255   -1.1354    4.5080 C.ar      1 <0>        -0.0885
      5 C4          5.9470   -1.7553    4.3607 C.ar      1 <0>        -0.1044
      6 C5          6.9317   -1.5920    5.3208 C.ar      1 <0>        -0.0670
      7 C6          6.6992   -0.8057    6.4370 C.ar      1 <0>        -0.1013
      8 C7          5.4860   -0.1732    6.5988 C.ar      1 <0>        -0.0762
      9 C8          2.1750   -0.4348    5.7788 C.2       1 <0>         0.2802
     10 C9          2.1751   -1.8826    5.5154 C.2       1 <0>        -0.2940
     11 C10         1.0155   -2.4839    5.1374 C.2       1 <0>         0.2579
     12 O1          1.0267   -3.8188    4.8951 O.3       1 <0>        -0.4223
     13 C11        -0.1979   -1.7821    4.9863 C.2       1 <0>         0.1918
     14 N2         -1.2881   -2.4555    4.7121 N.2       1 <0>        -0.3444
     15 C12        -1.2656   -3.8130    4.7118 C.ar      1 <0>         0.3562
     16 C13        -1.4597   -4.5765    5.9451 C.ar      1 <0>        -0.1315
     17 C14        -1.6774   -3.9580    7.1786 C.ar      1 <0>        -0.1744
     18 C15        -1.8524   -4.7274    8.2955 C.ar      1 <0>         0.1379
     19 C16        -1.8149   -6.1274    8.2141 C.ar      1 <0>         0.1670
     20 C17        -1.6035   -6.7557    7.0188 C.ar      1 <0>        -0.1777
     21 C18        -1.4216   -5.9919    5.8584 C.ar      1 <0>         0.1871
     22 N3         -1.2114   -6.5554    4.6609 N.ar      1 <0>        -0.4997
     23 C19        -1.0434   -5.8227    3.5866 C.ar      1 <0>         0.3168
     24 N4         -1.0710   -4.5025    3.5861 N.ar      1 <0>        -0.5077
     25 O2         -1.9907   -6.8687    9.3388 O.3       1 <0>        -0.2835
     26 C20        -1.9421   -8.2895    9.1934 C.3       1 <0>         0.0534
     27 C21        -2.1593   -8.9493   10.5566 C.3       1 <0>         0.0614
     28 O3         -3.4800   -8.6617   11.0201 O.3       1 <0>        -0.3858
     29 C22        -3.7872   -9.2347   12.2926 C.3       1 <0>         0.0302
     30 O4         -2.0645   -4.1293    9.4976 O.3       1 <0>        -0.2909
     31 C23        -2.0913   -2.7006    9.5156 C.3       1 <0>         0.0219
     32 C24        -0.2846   -0.2851    5.1297 C.3       1 <0>        -0.1034
     33 C25         0.8405    0.1780    6.0415 C.2       1 <0>         0.3840
     34 O5          0.6679    0.9895    6.9199 O.2       1 <0>        -0.3435
     35 H1          3.2780    1.9693    7.0245 H         1 <0>         0.1258
     36 H2          4.0621    2.1932    5.4423 H         1 <0>         0.1292
     37 H3          2.2877    2.1052    5.5517 H         1 <0>         0.1150
     38 H4          3.9587   -1.2641    3.7585 H         1 <0>         0.1425
     39 H5          6.1371   -2.3709    3.4939 H         1 <0>         0.1490
     40 H6          7.8868   -2.0811    5.1985 H         1 <0>         0.1463
     41 H7          7.4729   -0.6844    7.1807 H         1 <0>         0.1496
     42 H8          5.3080    0.4431    7.4676 H         1 <0>         0.1434
     43 H9          3.0825   -2.4588    5.6204 H         1 <0>         0.1815
     44 H10        -1.7070   -2.8808    7.2497 H         1 <0>         0.1414
     45 H11        -1.5771   -7.8342    6.9690 H         1 <0>         0.1609
     46 H12        -0.8773   -6.3283    2.6468 H         1 <0>         0.2038
     47 H13        -2.7239   -8.6113    8.5054 H         1 <0>         0.0813
     48 H14        -0.9686   -8.5814    8.7994 H         1 <0>         0.0861
     49 H15        -2.0342  -10.0280   10.4622 H         1 <0>         0.0783
     50 H16        -1.4315   -8.5602   11.2687 H         1 <0>         0.0640
     51 H17        -3.6959  -10.3193   12.2342 H         1 <0>         0.0446
     52 H18        -3.0932   -8.8515   13.0407 H         1 <0>         0.0444
     53 H19        -4.8066   -8.9705   12.5736 H         1 <0>         0.0904
     54 H20        -1.1356   -2.3148    9.1610 H         1 <0>         0.0516
     55 H21        -2.8906   -2.3440    8.8659 H         1 <0>         0.0622
     56 H22        -2.2683   -2.3533   10.5335 H         1 <0>         0.1121
     57 H23        -0.1826    0.1829    4.1506 H         1 <0>         0.1681
     58 H24        -1.2459   -0.0143    5.5664 H         1 <0>         0.1651
     59 H25         1.8913   -4.2338    5.0187 H         1 <0>         0.4253
@<TRIPOS>BOND
     1    1    2 1
     2    1   35 1
     3    1   36 1
     4    1   37 1
     5    2    9 2
     6    2    3 1
     7    3    8 ar
     8    3    4 ar
     9    4    5 ar
    10    4   38 1
    11    5    6 ar
    12    5   39 1
    13    6    7 ar
    14    6   40 1
    15    7    8 ar
    16    7   41 1
    17    8   42 1
    18    9   33 1
    19    9   10 1
    20   10   11 2
    21   10   43 1
    22   11   12 1
    23   11   13 1
    24   12   59 1
    25   13   14 2
    26   13   32 1
    27   14   15 1
    28   15   24 ar
    29   15   16 ar
    30   16   21 ar
    31   16   17 ar
    32   17   18 ar
    33   17   44 1
    34   18   19 ar
    35   18   30 1
    36   19   20 ar
    37   19   25 1
    38   20   21 ar
    39   20   45 1
    40   21   22 ar
    41   22   23 ar
    42   23   24 ar
    43   23   46 1
    44   25   26 1
    45   26   27 1
    46   26   47 1
    47   26   48 1
    48   27   28 1
    49   27   49 1
    50   27   50 1
    51   28   29 1
    52   29   51 1
    53   29   52 1
    54   29   53 1
    55   30   31 1
    56   31   54 1
    57   31   55 1
    58   31   56 1
    59   32   57 1
    60   32   58 1
    61   32   33 1
    62   33   34 2
@<TRIPOS>MOLECULE
CHEMBL271310
   71    75     0     0     0
SMALL
USER_CHARGES

@<TRIPOS>ATOM
      1 C1         -0.6422    1.7717   -0.1531 C.3       1 <0>        -0.1563
      2 C2         -0.2411    0.2952   -0.1601 C.3       1 <0>        -0.0239
      3 C3          0.7229    0.0231    0.9965 C.3       1 <0>        -0.1554
      4 C4         -1.4715   -0.5603   -0.0004 C.2       1 <0>        -0.0157
      5 C5         -2.3712   -0.5421    1.0824 C.2       1 <0>        -0.0948
      6 C6         -3.3505   -1.4828    0.8197 C.2       1 <0>         0.1123
      7 N1         -3.0855   -2.0641   -0.3632 N.pl3     1 <0>        -0.2272
      8 C7         -1.9351   -1.5066   -0.8892 C.2       1 <0>        -0.1053
      9 C8         -1.4723   -1.9713   -2.1441 C.2       1 <0>         0.5372
     10 N2         -2.1516   -2.9160   -2.7731 N.2       1 <0>        -0.6186
     11 C9         -3.2605   -3.4409   -2.2549 C.2       1 <0>         0.3393
     12 N3         -3.7367   -3.0644   -1.1002 N.2       1 <0>        -0.3450
     13 N4         -0.3260   -1.4443   -2.7048 N.pl3     1 <0>        -0.6134
     14 C10         0.0516   -1.8116   -4.0025 C.ar      1 <0>         0.0943
     15 C11        -0.8875   -2.3354   -4.8736 C.ar      1 <0>        -0.0397
     16 C12        -0.5076   -2.7003   -6.1673 C.ar      1 <0>        -0.1634
     17 C13         0.8205   -2.5339   -6.5744 C.ar      1 <0>         0.1834
     18 C14         1.7507   -2.0099   -5.6967 C.ar      1 <0>        -0.1766
     19 C15         1.3709   -1.6441   -4.4172 C.ar      1 <0>         0.1335
     20 F1          2.2837   -1.1273   -3.5658 F         1 <0>        -0.1204
     21 F2          1.1935   -2.8855   -7.8244 F         1 <0>        -0.0998
     22 C16        -1.5037   -3.2599   -7.1014 C.2       1 <0>         0.5667
     23 O1         -1.1708   -3.5768   -8.2270 O.2       1 <0>        -0.5126
     24 N5         -2.7825   -3.4196   -6.7067 N.am      1 <0>        -0.6950
     25 C17        -3.7713   -3.9751   -7.6340 C.3       1 <0>         0.0777
     26 C18        -5.1428   -3.2994   -7.6923 C.3       1 <0>        -0.1917
     27 C19        -4.9931   -4.6707   -7.0304 C.3       1 <0>        -0.1858
     28 C20        -2.2852    0.3224    2.2785 C.2       1 <0>         0.2417
     29 N6         -1.3602    1.2175    2.5241 N.2       1 <0>        -0.2415
     30 N7         -1.6002    1.7810    3.6555 N.2       1 <0>        -0.3330
     31 C21        -2.6880    1.2679    4.1770 C.2       1 <0>         0.4131
     32 O2         -3.1490    0.3393    3.3172 O.3       1 <0>        -0.2394
     33 N8         -3.2600    1.6192    5.3856 N.pl3     1 <0>        -0.6850
     34 C22        -2.6428    2.6582    6.2136 C.3       1 <0>         0.1485
     35 C23        -3.4680    2.8525    7.4872 C.3       1 <0>        -0.1656
     36 C24        -2.8234    3.9377    8.3520 C.3       1 <0>        -0.0061
     37 N9         -3.6157    4.1242    9.5749 N.4       1 <0>        -0.3867
     38 C25        -2.9337    5.0784   10.4594 C.3       1 <0>        -0.0477
     39 C26        -4.9435    4.6451    9.2234 C.3       1 <0>        -0.0542
     40 H1          0.2477    2.3904   -0.2686 H         1 <0>         0.0656
     41 H2         -1.3289    1.9655   -0.9771 H         1 <0>         0.0493
     42 H3         -1.1310    2.0110    0.7913 H         1 <0>         0.0896
     43 H4          0.2477    0.0559   -1.1045 H         1 <0>         0.0605
     44 H5          0.2340    0.2624    1.9409 H         1 <0>         0.0873
     45 H6          1.0086   -1.0288    0.9915 H         1 <0>         0.0498
     46 H7          1.6127    0.6419    0.8810 H         1 <0>         0.0663
     47 H8         -4.1894   -1.7129    1.4597 H         1 <0>         0.1921
     48 H9         -3.7802   -4.2099   -2.8071 H         1 <0>         0.2269
     49 H10         0.2179   -0.8197   -2.1999 H         1 <0>         0.4299
     50 H11        -1.9113   -2.4620   -4.5540 H         1 <0>         0.1825
     51 H12         2.7759   -1.8820   -6.0114 H         1 <0>         0.1668
     52 H13        -3.0481   -3.1668   -5.8087 H         1 <0>         0.4011
     53 H14        -3.3694   -4.3800   -8.5628 H         1 <0>         0.1422
     54 H15        -5.3093   -2.4416   -7.0408 H         1 <0>         0.0964
     55 H16        -5.6434   -3.2595   -8.6597 H         1 <0>         0.1057
     56 H17        -5.3953   -5.5329   -7.5624 H         1 <0>         0.1071
     57 H18        -5.0612   -4.7150   -5.9434 H         1 <0>         0.0975
     58 H19        -4.0701    1.1777    5.6853 H         1 <0>         0.4187
     59 H20        -1.6297    2.3567    6.4795 H         1 <0>         0.0847
     60 H21        -2.6088    3.5944    5.6563 H         1 <0>         0.0843
     61 H22        -4.4811    3.1540    7.2213 H         1 <0>         0.0979
     62 H23        -3.5020    1.9163    8.0445 H         1 <0>         0.0981
     63 H24        -1.8102    3.6362    8.6179 H         1 <0>         0.1381
     64 H25        -2.7894    4.8738    7.7947 H         1 <0>         0.1367
     65 H26        -2.8250    6.0346    9.9475 H         1 <0>         0.1237
     66 H27        -3.5216    5.2168   11.3668 H         1 <0>         0.1260
     67 H28        -1.9485    4.6919   10.7202 H         1 <0>         0.1252
     68 H29        -5.4495    3.9371    8.5671 H         1 <0>         0.1236
     69 H30        -5.5313    4.7836   10.1307 H         1 <0>         0.1261
     70 H31        -4.8348    5.6013    8.7115 H         1 <0>         0.1243
     71 H32        -3.7163    3.2391   10.0487 H         1 <0>         0.4279
@<TRIPOS>BOND
     1    1    2 1
     2    1   40 1
     3    1   41 1
     4    1   42 1
     5    2    3 1
     6    2    4 1
     7    2   43 1
     8    3   44 1
     9    3   45 1
    10    3   46 1
    11    4    8 2
    12    4    5 1
    13    5    6 2
    14    5   28 1
    15    6    7 1
    16    6   47 1
    17    7   12 1
    18    7    8 1
    19    8    9 1
    20    9   10 2
    21    9   13 1
    22   10   11 1
    23   11   12 2
    24   11   48 1
    25   13   14 1
    26   13   49 1
    27   14   19 ar
    28   14   15 ar
    29   15   16 ar
    30   15   50 1
    31   16   17 ar
    32   16   22 1
    33   17   18 ar
    34   17   21 1
    35   18   19 ar
    36   18   51 1
    37   19   20 1
    38   22   23 2
    39   22   24 am
    40   24   25 1
    41   24   52 1
    42   25   27 1
    43   25   26 1
    44   25   53 1
    45   26   27 1
    46   26   54 1
    47   26   55 1
    48   27   56 1
    49   27   57 1
    50   28   32 1
    51   28   29 2
    52   29   30 1
    53   30   31 2
    54   31   32 1
    55   31   33 1
    56   33   34 1
    57   33   58 1
    58   34   35 1
    59   34   59 1
    60   34   60 1
    61   35   36 1
    62   35   61 1
    63   35   62 1
    64   36   37 1
    65   36   63 1
    66   36   64 1
    67   37   38 1
    68   37   39 1
    69   37   71 1
    70   38   65 1
    71   38   66 1
    72   38   67 1
    73   39   68 1
    74   39   69 1
    75   39   70 1
@<TRIPOS>MOLECULE
CHEMBL98896
   28    30     0     0     0
SMALL
USER_CHARGES

@<TRIPOS>ATOM
      1 C1         -0.0156    1.3813    0.0364 C.ar      1 <0>        -0.1190
      2 C2          1.1696    2.0953    0.0261 C.ar      1 <0>        -0.1113
      3 C3          2.3785    1.4309    0.0065 C.ar      1 <0>        -0.1144
      4 C4          2.4042    0.0352   -0.0028 C.ar      1 <0>         0.0101
      5 C5          1.2047   -0.6790    0.0077 C.ar      1 <0>        -0.1039
      6 C6          0.0028   -0.0022    0.0272 C.ar      1 <0>        -0.1111
      7 C7          3.6954   -0.6832   -0.0242 C.2       1 <0>        -0.1883
      8 C8          3.9465   -2.0294   -0.0418 C.2       1 <0>         0.0848
      9 N1          5.2110   -2.3958   -0.0590 N.2       1 <0>        -0.5160
     10 C9          6.1812   -1.5043   -0.0592 C.2       1 <0>         0.2784
     11 S1          5.3594   -0.0358   -0.0422 S.3       1 <0>         0.1244
     12 N2          7.5492   -1.7233   -0.0752 N.pl3     1 <0>        -0.5945
     13 C10         8.0473   -3.0194    0.0135 C.ar      1 <0>         0.3241
     14 C11         9.4205   -3.2351    0.1070 C.ar      1 <0>         0.0203
     15 N3          9.8886   -4.4656    0.1914 N.ar      1 <0>        -0.4079
     16 C12         9.0560   -5.4935    0.1873 C.ar      1 <0>         0.0063
     17 C13         7.6934   -5.2835    0.0942 C.ar      1 <0>         0.0940
     18 N4          7.2157   -4.0530    0.0148 N.ar      1 <0>        -0.4346
     19 H1         -0.9592    1.9063    0.0562 H         1 <0>         0.1252
     20 H2          1.1482    3.1750    0.0330 H         1 <0>         0.1268
     21 H3          3.3028    1.9894   -0.0019 H         1 <0>         0.1214
     22 H4          1.2177   -1.7589    0.0002 H         1 <0>         0.1268
     23 H5         -0.9259   -0.5534    0.0353 H         1 <0>         0.1280
     24 H6          3.1465   -2.7549   -0.0412 H         1 <0>         0.1758
     25 H7          8.1596   -0.9730   -0.1482 H         1 <0>         0.4391
     26 H8         10.1008   -2.3963    0.1101 H         1 <0>         0.1694
     27 H9          9.4423   -6.4996    0.2565 H         1 <0>         0.1723
     28 H10         7.0171   -6.1256    0.0905 H         1 <0>         0.1737
@<TRIPOS>BOND
     1    1    6 ar
     2    1    2 ar
     3    1   19 1
     4    2    3 ar
     5    2   20 1
     6    3    4 ar
     7    3   21 1
     8    4    5 ar
     9    4    7 1
    10    5    6 ar
    11    5   22 1
    12    6   23 1
    13    7   11 1
    14    7    8 2
    15    8    9 1
    16    8   24 1
    17    9   10 2
    18   10   11 1
    19   10   12 1
    20   12   13 1
    21   12   25 1
    22   13   18 ar
    23   13   14 ar
    24   14   15 ar
    25   14   26 1
    26   15   16 ar
    27   16   17 ar
    28   16   27 1
    29   17   18 ar
    30   17   28 1
@<TRIPOS>MOLECULE
CHEMBL253969
   57    59     0     0     0
SMALL
USER_CHARGES

@<TRIPOS>ATOM
      1 C1         -0.0167    1.3803    0.0096 C.ar      1 <0>        -0.1392
      2 C2          1.1713    2.0884    0.0021 C.ar      1 <0>        -0.0265
      3 C3          2.3787    1.4142   -0.0130 C.ar      1 <0>        -0.1400
      4 C4          2.3990    0.0298   -0.0206 C.ar      1 <0>         0.1653
      5 C5          1.2103   -0.6795   -0.0131 C.ar      1 <0>        -0.1629
      6 C6          0.0021   -0.0041    0.0020 C.ar      1 <0>         0.1674
      7 F1         -1.1585   -0.6956    0.0098 F         1 <0>        -0.1140
      8 C7          1.2315   -2.1863   -0.0213 C.3       1 <0>         0.1132
      9 O1          1.2511   -2.6698    1.3233 O.3       1 <0>        -0.2843
     10 C8          1.2717   -4.0169    1.4938 C.2       1 <0>         0.3537
     11 C9          1.2865   -4.5894    2.7707 C.2       1 <0>        -0.2981
     12 C10         1.3065   -5.9854    2.7735 C.2       1 <0>         0.0839
     13 S1          1.3036   -6.3643    1.1392 S.3       1 <0>         0.4825
     14 N1          1.2731   -4.8315    0.4730 N.2       1 <0>        -0.5587
     15 N2          1.3249   -6.8459    3.8586 N.am      1 <0>        -0.6223
     16 C11         1.3429   -8.1791    3.6613 C.2       1 <0>         0.7032
     17 O2          1.3431   -8.6263    2.5308 O.2       1 <0>        -0.5446
     18 N3          1.3607   -9.0164    4.7173 N.am      1 <0>        -0.7339
     19 C12         1.3803  -10.4655    4.5028 C.3       1 <0>         0.1355
     20 C13         1.3980  -11.1810    5.8550 C.3       1 <0>        -0.1316
     21 C14         1.4185  -12.6944    5.6310 C.3       1 <0>        -0.1449
     22 C15         1.4362  -13.4099    6.9833 C.3       1 <0>        -0.0046
     23 N4          1.4559  -14.8629    6.7682 N.4       1 <0>        -0.3953
     24 C16         2.7570  -15.2765    6.1833 C.3       1 <0>        -0.0078
     25 C17         2.8441  -16.7816    6.5409 C.3       1 <0>        -0.1463
     26 C18         2.2225  -16.8373    7.9553 C.3       1 <0>        -0.1460
     27 C19         1.3521  -15.5715    8.0623 C.3       1 <0>        -0.0084
     28 C20         1.2818   -3.7911    4.0010 C.2       1 <0>         0.6016
     29 O3          0.2261   -3.4750    4.5172 O.2       1 <0>        -0.5241
     30 N5          2.4467   -3.4075    4.5598 N.am      1 <0>        -0.8428
     31 F2          3.5786   -0.6286   -0.0358 F         1 <0>        -0.1159
     32 Br1         1.1446    3.9792    0.0118 Br        1 <0>        -0.0061
     33 H1         -0.9592    1.9074    0.0260 H         1 <0>         0.1600
     34 H2          3.3061    1.9678   -0.0193 H         1 <0>         0.1595
     35 H3          0.3419   -2.5594   -0.5287 H         1 <0>         0.0925
     36 H4          2.1216   -2.5343   -0.5455 H         1 <0>         0.0928
     37 H5          1.3247   -6.4891    4.7606 H         1 <0>         0.4197
     38 H6          1.3605   -8.6596    5.6192 H         1 <0>         0.4046
     39 H7          0.4915  -10.7625    3.9462 H         1 <0>         0.0780
     40 H8          2.2712  -10.7369    3.9364 H         1 <0>         0.0778
     41 H9          2.2869  -10.8840    6.4116 H         1 <0>         0.0835
     42 H10         0.5071  -10.9096    6.4214 H         1 <0>         0.0842
     43 H11         0.5296  -12.9914    5.0744 H         1 <0>         0.0926
     44 H12         2.3094  -12.9658    5.0647 H         1 <0>         0.0919
     45 H13         2.3251  -13.1129    7.5399 H         1 <0>         0.1300
     46 H14         0.5453  -13.1385    7.5496 H         1 <0>         0.1308
     47 H15         2.7544  -15.1375    5.1022 H         1 <0>         0.1358
     48 H16         3.5776  -14.7242    6.6412 H         1 <0>         0.1337
     49 H17         2.2614  -17.3790    5.8396 H         1 <0>         0.0984
     50 H18         3.8821  -17.1135    6.5623 H         1 <0>         0.1167
     51 H19         1.6066  -17.7302    8.0629 H         1 <0>         0.1053
     52 H20         3.0055  -16.8233    8.7134 H         1 <0>         0.1037
     53 H21         1.7214  -14.9338    8.8655 H         1 <0>         0.1303
     54 H22         0.3151  -15.8488    8.2517 H         1 <0>         0.1322
     55 H23         3.2882   -3.6594    4.1484 H         1 <0>         0.4035
     56 H24         2.4436   -2.8795    5.3735 H         1 <0>         0.4069
     57 H25         0.6978  -15.1354    6.1606 H         1 <0>         0.4275
@<TRIPOS>BOND
     1    1    6 ar
     2    1    2 ar
     3    1   33 1
     4    2    3 ar
     5    2   32 1
     6    3    4 ar
     7    3   34 1
     8    4    5 ar
     9    4   31 1
    10    5    6 ar
    11    5    8 1
    12    6    7 1
    13    8    9 1
    14    8   35 1
    15    8   36 1
    16    9   10 1
    17   10   14 2
    18   10   11 1
    19   11   12 2
    20   11   28 1
    21   12   13 1
    22   12   15 1
    23   13   14 1
    24   15   16 am
    25   15   37 1
    26   16   17 2
    27   16   18 am
    28   18   19 1
    29   18   38 1
    30   19   20 1
    31   19   39 1
    32   19   40 1
    33   20   21 1
    34   20   41 1
    35   20   42 1
    36   21   22 1
    37   21   43 1
    38   21   44 1
    39   22   23 1
    40   22   45 1
    41   22   46 1
    42   23   27 1
    43   23   24 1
    44   23   57 1
    45   24   25 1
    46   24   47 1
    47   24   48 1
    48   25   26 1
    49   25   49 1
    50   25   50 1
    51   26   27 1
    52   26   51 1
    53   26   52 1
    54   27   53 1
    55   27   54 1
    56   28   29 2
    57   28   30 am
    58   30   55 1
    59   30   56 1
@<TRIPOS>MOLECULE
CHEMBL176019
   49    52     0     0     0
SMALL
USER_CHARGES

@<TRIPOS>ATOM
      1 C1         -0.0395    1.5430   -0.0300 C.3       1 <0>        -0.1933
      2 C2          0.0170    0.0141   -0.0339 C.3       1 <0>         0.1105
      3 C3          0.9274   -0.4655    1.0983 C.3       1 <0>        -0.1895
      4 N1         -1.3311   -0.5249    0.1620 N.pl3     1 <0>        -0.5301
      5 C4         -1.8935   -1.4633   -0.8124 C.3       1 <0>         0.1319
      6 C5         -1.5444   -2.8733   -0.4112 C.ar      1 <0>        -0.1473
      7 C6         -0.3748   -3.4522   -0.8671 C.ar      1 <0>        -0.0876
      8 C7         -0.0546   -4.7456   -0.4990 C.ar      1 <0>        -0.1088
      9 C8         -0.9038   -5.4600    0.3253 C.ar      1 <0>        -0.0899
     10 C9         -2.0729   -4.8808    0.7819 C.ar      1 <0>        -0.1095
     11 C10        -2.3910   -3.5859    0.4174 C.ar      1 <0>        -0.1109
     12 C11        -2.0640   -0.1524    1.2534 C.cat     1 <0>         0.7308
     13 N2         -3.3175   -0.5527    1.3798 N.pl3     1 <0>        -0.6144
     14 C12        -4.0367   -0.1902    2.4448 C.2       1 <0>         0.6618
     15 N3         -3.5061    0.5754    3.3911 N.2       1 <0>        -0.5648
     16 C13        -2.2432    0.9935    3.2895 C.2       1 <0>         0.6654
     17 N4         -1.5034    0.6303    2.2212 N.am      1 <0>        -0.6441
     18 O1         -1.7585    1.6964    4.1601 O.2       1 <0>        -0.4437
     19 N5         -5.3398   -0.6134    2.5624 N.pl3     1 <0>        -0.5937
     20 C14        -6.1332   -0.1507    3.6186 C.ar      1 <0>         0.1327
     21 C15        -7.0788   -0.9872    4.2099 C.ar      1 <0>        -0.1118
     22 C16        -7.8613   -0.5635    5.2365 C.ar      1 <0>        -0.0366
     23 C17        -7.7442    0.7513    5.7459 C.ar      1 <0>         0.0862
     24 C18        -6.7777    1.5781    5.1280 C.ar      1 <0>        -0.1329
     25 C19        -5.9843    1.1449    4.0942 C.ar      1 <0>        -0.0321
     26 S1         -6.9463    3.0957    6.0360 S.3       1 <0>         0.0042
     27 C20        -8.2439    2.5527    7.1387 C.2       1 <0>         0.1698
     28 N6         -8.4407    1.3216    6.7527 N.2       1 <0>        -0.5042
     29 H1          0.9725    1.9442   -0.0841 H         1 <0>         0.1095
     30 H2         -0.6134    1.8876   -0.8902 H         1 <0>         0.0872
     31 H3         -0.5180    1.8866    0.8872 H         1 <0>         0.0598
     32 H4          0.4116   -0.3325   -0.9890 H         1 <0>         0.1437
     33 H5          0.4858   -0.1974    2.0581 H         1 <0>         0.0583
     34 H6          1.0402   -1.5481    1.0400 H         1 <0>         0.0872
     35 H7          1.9050    0.0072    1.0034 H         1 <0>         0.1073
     36 H8         -2.9774   -1.3514   -0.8408 H         1 <0>         0.1003
     37 H9         -1.4806   -1.2535   -1.7991 H         1 <0>         0.1407
     38 H10         0.2886   -2.8941   -1.5111 H         1 <0>         0.1311
     39 H11         0.8588   -5.1981   -0.8558 H         1 <0>         0.1359
     40 H12        -0.6539   -6.4707    0.6123 H         1 <0>         0.1352
     41 H13        -2.7365   -5.4391    1.4257 H         1 <0>         0.1335
     42 H14        -3.3026   -3.1321    0.7771 H         1 <0>         0.1080
     43 H15        -5.7091   -1.2325    1.9135 H         1 <0>         0.4362
     44 H16        -7.1924   -1.9965    3.8427 H         1 <0>         0.1442
     45 H17        -8.5832   -1.2398    5.6698 H         1 <0>         0.1484
     46 H18        -5.2546    1.8073    3.6525 H         1 <0>         0.1482
     47 H19        -8.7391    3.1034    7.9248 H         1 <0>         0.2408
     48 H20        -0.5832    0.9259    2.1397 H         1 <0>         0.4503
     49 H21        -3.7168   -1.1122    0.6955 H         1 <0>         0.4459
@<TRIPOS>BOND
     1    1    2 1
     2    1   29 1
     3    1   30 1
     4    1   31 1
     5    2    3 1
     6    2    4 1
     7    2   32 1
     8    3   33 1
     9    3   34 1
    10    3   35 1
    11    4    5 1
    12    4   12 1
    13    5    6 1
    14    5   36 1
    15    5   37 1
    16    6   11 ar
    17    6    7 ar
    18    7    8 ar
    19    7   38 1
    20    8    9 ar
    21    8   39 1
    22    9   10 ar
    23    9   40 1
    24   10   11 ar
    25   10   41 1
    26   11   42 1
    27   12   17 1
    28   12   13 2
    29   13   14 1
    30   13   49 1
    31   14   15 2
    32   14   19 1
    33   15   16 1
    34   16   17 am
    35   16   18 2
    36   17   48 1
    37   19   20 1
    38   19   43 1
    39   20   25 ar
    40   20   21 ar
    41   21   22 ar
    42   21   44 1
    43   22   23 ar
    44   22   45 1
    45   23   28 1
    46   23   24 ar
    47   24   25 ar
    48   24   26 1
    49   25   46 1
    50   26   27 1
    51   27   28 2
    52   27   47 1
@<TRIPOS>MOLECULE
CHEMBL176019__1
   48    51     0     0     0
SMALL
USER_CHARGES

@<TRIPOS>ATOM
      1 C1          0.3729    0.9791    0.3001 C.3       1 <0>        -0.1730
      2 C2          0.1328   -0.5315    0.3378 C.3       1 <0>         0.1583
      3 C3          0.6298   -1.0938    1.6712 C.3       1 <0>        -0.1720
      4 N1         -1.3001   -0.8019    0.1975 N.pl3     1 <0>        -0.5637
      5 C4         -1.7873   -1.6056   -0.9263 C.3       1 <0>         0.1462
      6 C5         -1.8083   -3.0600   -0.5320 C.ar      1 <0>        -0.1241
      7 C6         -0.6936   -3.8496   -0.7438 C.ar      1 <0>        -0.0951
      8 C7         -0.7128   -5.1837   -0.3821 C.ar      1 <0>        -0.1173
      9 C8         -1.8465   -5.7280    0.1918 C.ar      1 <0>        -0.1065
     10 C9         -2.9608   -4.9381    0.4045 C.ar      1 <0>        -0.1141
     11 C10        -2.9401   -3.6030    0.0467 C.ar      1 <0>        -0.1065
     12 C11        -2.1823   -0.3045    1.1149 C.2       1 <0>         0.6908
     13 N2         -1.7467    0.4256    2.1271 N.2       1 <0>        -0.6408
     14 C12        -2.6058    0.9132    3.0255 C.2       1 <0>         0.6530
     15 N3         -3.9073    0.6734    2.9169 N.2       1 <0>        -0.6485
     16 C13        -4.3747   -0.0603    1.9052 C.2       1 <0>         0.6740
     17 N4         -3.5182   -0.5545    0.9873 N.am      1 <0>        -0.6862
     18 O1         -5.5704   -0.2789    1.8080 O.2       1 <0>        -0.5293
     19 N5         -2.1382    1.6707    4.0735 N.pl3     1 <0>        -0.6148
     20 C14        -3.0142    2.0839    5.0839 C.ar      1 <0>         0.1810
     21 C15        -2.8830    3.3472    5.6586 C.ar      1 <0>        -0.1283
     22 C16        -3.7200    3.7731    6.6404 C.ar      1 <0>        -0.0381
     23 C17        -4.7619    2.9440    7.1187 C.ar      1 <0>         0.0550
     24 C18        -4.8721    1.6684    6.5185 C.ar      1 <0>        -0.1133
     25 C19        -4.0280    1.2431    5.5223 C.ar      1 <0>        -0.0486
     26 S1         -6.2609    0.9684    7.3771 S.3       1 <0>        -0.0219
     27 C20        -6.5934    2.3662    8.4402 C.2       1 <0>         0.1439
     28 N6         -5.6705    3.2159    8.0802 N.2       1 <0>        -0.4975
     29 H1          1.4390    1.1803    0.4045 H         1 <0>         0.0712
     30 H2          0.0188    1.3796   -0.6497 H         1 <0>         0.0530
     31 H3         -0.1683    1.4535    1.1188 H         1 <0>         0.0885
     32 H4          0.6740   -1.0059   -0.4808 H         1 <0>         0.0949
     33 H5          0.0887   -0.6194    2.4898 H         1 <0>         0.0875
     34 H6          0.4588   -2.1699    1.6980 H         1 <0>         0.0531
     35 H7          1.6960   -0.8926    1.7756 H         1 <0>         0.0699
     36 H8         -2.7953   -1.2865   -1.1912 H         1 <0>         0.0878
     37 H9         -1.1267   -1.4708   -1.7827 H         1 <0>         0.1131
     38 H10         0.1921   -3.4244   -1.1922 H         1 <0>         0.1249
     39 H11         0.1578   -5.8008   -0.5482 H         1 <0>         0.1269
     40 H12        -1.8617   -6.7704    0.4738 H         1 <0>         0.1262
     41 H13        -3.8467   -5.3634    0.8525 H         1 <0>         0.1266
     42 H14        -3.8095   -2.9850    0.2162 H         1 <0>         0.1147
     43 H15        -1.2013    1.9187    4.1125 H         1 <0>         0.4296
     44 H16        -2.0967    4.0032    5.3153 H         1 <0>         0.1391
     45 H17        -3.5878    4.7586    7.0621 H         1 <0>         0.1391
     46 H18        -4.1491    0.2621    5.0871 H         1 <0>         0.1450
     47 H19        -7.3628    2.4791    9.1897 H         1 <0>         0.2332
     48 H20        -3.8482   -1.0858    0.2458 H         1 <0>         0.4131
@<TRIPOS>BOND
     1    1    2 1
     2    1   29 1
     3    1   30 1
     4    1   31 1
     5    2    3 1
     6    2    4 1
     7    2   32 1
     8    3   33 1
     9    3   34 1
    10    3   35 1
    11    4    5 1
    12    4   12 1
    13    5    6 1
    14    5   36 1
    15    5   37 1
    16    6   11 ar
    17    6    7 ar
    18    7    8 ar
    19    7   38 1
    20    8    9 ar
    21    8   39 1
    22    9   10 ar
    23    9   40 1
    24   10   11 ar
    25   10   41 1
    26   11   42 1
    27   12   17 1
    28   12   13 2
    29   13   14 1
    30   14   15 2
    31   14   19 1
    32   15   16 1
    33   16   17 am
    34   16   18 2
    35   17   48 1
    36   19   20 1
    37   19   43 1
    38   20   25 ar
    39   20   21 ar
    40   21   22 ar
    41   21   44 1
    42   22   23 ar
    43   22   45 1
    44   23   28 1
    45   23   24 ar
    46   24   25 ar
    47   24   26 1
    48   25   46 1
    49   26   27 1
    50   27   28 2
    51   27   47 1
@<TRIPOS>MOLECULE
CHEMBL411630
   60    64     0     0     0
SMALL
USER_CHARGES

@<TRIPOS>ATOM
      1 C1         -1.2791    1.2203    2.6408 C.3       1 <0>        -0.1150
      2 C2         -0.9832   -0.2565    2.5885 C.ar      1 <0>        -0.1011
      3 C3         -1.2704   -1.0567    3.6791 C.ar      1 <0>        -0.0995
      4 C4         -1.0004   -2.4104    3.6344 C.ar      1 <0>        -0.1442
      5 C5         -0.4399   -2.9678    2.4926 C.ar      1 <0>         0.1484
      6 C6         -0.1526   -2.1615    1.3991 C.ar      1 <0>        -0.1289
      7 C7         -0.4302   -0.8094    1.4480 C.ar      1 <0>        -0.0998
      8 N1         -0.1647   -4.3390    2.4443 N.am      1 <0>        -0.6746
      9 C8         -0.1346   -4.9788    1.2585 C.2       1 <0>         0.7143
     10 O1         -0.2173   -4.3456    0.2236 O.2       1 <0>        -0.5438
     11 N2         -0.0129   -6.3205    1.2196 N.am      1 <0>        -0.5662
     12 C9          0.1442   -7.1079    2.4546 C.3       1 <0>         0.0614
     13 C10         1.2101   -8.1803    2.1880 C.3       1 <0>         0.0495
     14 O2          0.7878   -8.9858    1.0852 O.3       1 <0>        -0.3036
     15 C11         0.3759   -8.3498   -0.0431 C.ar      1 <0>         0.1094
     16 C12        -0.0373   -7.0193   -0.0023 C.ar      1 <0>         0.1039
     17 C13        -0.4644   -6.3833   -1.1563 C.ar      1 <0>        -0.0996
     18 C14        -0.4848   -7.0704   -2.3560 C.ar      1 <0>        -0.1189
     19 C15        -0.0776   -8.3955   -2.4033 C.ar      1 <0>         0.0893
     20 C16         0.3606   -9.0341   -1.2485 C.ar      1 <0>        -0.1359
     21 O3         -0.0975   -9.0692   -3.5839 O.3       1 <0>        -0.2423
     22 C17        -1.0823   -9.9802   -3.7805 C.ar      1 <0>         0.1834
     23 C18        -2.1201  -10.1155   -2.8746 C.ar      1 <0>        -0.2628
     24 C19        -3.1149  -11.0571   -3.1028 C.ar      1 <0>         0.1640
     25 N3         -3.1037  -11.8329   -4.1616 N.ar      1 <0>        -0.4942
     26 C20        -2.1314  -11.7561   -5.0776 C.ar      1 <0>         0.1713
     27 C21        -1.0838  -10.8164   -4.9191 C.ar      1 <0>        -0.1072
     28 C22        -0.0684  -10.7342   -5.8843 C.ar      1 <0>        -0.1536
     29 C23        -0.1021  -11.5579   -6.9718 C.ar      1 <0>         0.1127
     30 C24        -1.1414  -12.4857   -7.1345 C.ar      1 <0>         0.1509
     31 C25        -2.1349  -12.5947   -6.2051 C.ar      1 <0>        -0.1799
     32 O4         -1.1528  -13.2950   -8.2260 O.3       1 <0>        -0.3001
     33 C26        -2.2367  -14.2196   -8.3368 C.3       1 <0>         0.0211
     34 O5          0.8814  -11.4781   -7.9073 O.3       1 <0>        -0.3020
     35 C27         1.9115  -10.5129   -7.6849 C.3       1 <0>         0.0228
     36 H1         -2.2923    1.4007    2.2818 H         1 <0>         0.0704
     37 H2         -1.1895    1.5726    3.6683 H         1 <0>         0.0662
     38 H3         -0.5694    1.7556    2.0099 H         1 <0>         0.0667
     39 H4         -1.7060   -0.6225    4.5669 H         1 <0>         0.1271
     40 H5         -1.2247   -3.0348    4.4866 H         1 <0>         0.1246
     41 H6          0.2837   -2.5919    0.5098 H         1 <0>         0.1567
     42 H7         -0.2114   -0.1826    0.5962 H         1 <0>         0.1263
     43 H8          0.0043   -4.8289    3.2642 H         1 <0>         0.4072
     44 H9          0.4678   -6.4589    3.2684 H         1 <0>         0.1021
     45 H10        -0.8021   -7.5830    2.7133 H         1 <0>         0.0978
     46 H11         2.1589   -7.7006    1.9478 H         1 <0>         0.0756
     47 H12         1.3284   -8.8057    3.0729 H         1 <0>         0.1302
     48 H13        -0.7816   -5.3516   -1.1190 H         1 <0>         0.1803
     49 H14        -0.8182   -6.5755   -3.2562 H         1 <0>         0.1414
     50 H15         0.6777  -10.0658   -1.2877 H         1 <0>         0.1447
     51 H16        -2.1557   -9.4916   -1.9937 H         1 <0>         0.1411
     52 H17        -3.9199  -11.1540   -2.3893 H         1 <0>         0.1622
     53 H18         0.7354  -10.0225   -5.7672 H         1 <0>         0.1491
     54 H19        -2.9289  -13.3137   -6.3428 H         1 <0>         0.1537
     55 H20        -2.1248  -14.8028   -9.2508 H         1 <0>         0.1054
     56 H21        -2.2331  -14.8885   -7.4763 H         1 <0>         0.0606
     57 H22        -3.1791  -13.6726   -8.3679 H         1 <0>         0.0606
     58 H23         2.4183  -10.7324   -6.7451 H         1 <0>         0.0580
     59 H24         2.6303  -10.5535   -8.5033 H         1 <0>         0.1046
     60 H25         1.4718   -9.5168   -7.6365 H         1 <0>         0.0584
@<TRIPOS>BOND
     1    1    2 1
     2    1   36 1
     3    1   37 1
     4    1   38 1
     5    2    7 ar
     6    2    3 ar
     7    3    4 ar
     8    3   39 1
     9    4    5 ar
    10    4   40 1
    11    5    6 ar
    12    5    8 1
    13    6    7 ar
    14    6   41 1
    15    7   42 1
    16    8    9 am
    17    8   43 1
    18    9   10 2
    19    9   11 am
    20   11   16 1
    21   11   12 1
    22   12   13 1
    23   12   44 1
    24   12   45 1
    25   13   14 1
    26   13   46 1
    27   13   47 1
    28   14   15 1
    29   15   20 ar
    30   15   16 ar
    31   16   17 ar
    32   17   18 ar
    33   17   48 1
    34   18   19 ar
    35   18   49 1
    36   19   20 ar
    37   19   21 1
    38   20   50 1
    39   21   22 1
    40   22   27 ar
    41   22   23 ar
    42   23   24 ar
    43   23   51 1
    44   24   25 ar
    45   24   52 1
    46   25   26 ar
    47   26   31 ar
    48   26   27 ar
    49   27   28 ar
    50   28   29 ar
    51   28   53 1
    52   29   30 ar
    53   29   34 1
    54   30   31 ar
    55   30   32 1
    56   31   54 1
    57   32   33 1
    58   33   55 1
    59   33   56 1
    60   33   57 1
    61   34   35 1
    62   35   58 1
    63   35   59 1
    64   35   60 1
@<TRIPOS>MOLECULE
CHEMBL270306
   63    67     0     0     0
SMALL
USER_CHARGES

@<TRIPOS>ATOM
      1 C1          1.5983   -1.0227    1.9107 C.3       1 <0>        -0.1601
      2 C2          2.0702    0.1815    1.0934 C.3       1 <0>         0.2014
      3 H1          1.2103    0.7896    0.8125 H         1 <0>         0.1000
      4 C3          3.0214    1.0080    1.9200 C.ar      1 <0>        -0.0956
      5 C4          4.3435    0.6238    2.0429 C.ar      1 <0>        -0.1170
      6 C5          5.2160    1.3819    2.8011 C.ar      1 <0>        -0.1146
      7 C6          4.7664    2.5246    3.4360 C.ar      1 <0>        -0.1164
      8 C7          3.4445    2.9094    3.3123 C.ar      1 <0>        -0.1132
      9 C8          2.5730    2.1535    2.5506 C.ar      1 <0>        -0.1054
     10 N1          2.7533   -0.2861   -0.1153 N.am      1 <0>        -0.7330
     11 C9          2.0398   -0.5910   -1.2174 C.2       1 <0>         0.7158
     12 O1          0.8246   -0.5674   -1.1807 O.2       1 <0>        -0.5594
     13 N2          2.6732   -0.9219   -2.3601 N.am      1 <0>        -0.5696
     14 C10         4.1400   -1.0488   -2.4095 C.3       1 <0>         0.0633
     15 C11         4.6176   -0.3975   -3.7153 C.3       1 <0>         0.0494
     16 O2          3.9824   -1.0518   -4.8161 O.3       1 <0>        -0.3044
     17 C12         2.6344   -1.2166   -4.7633 C.ar      1 <0>         0.1058
     18 C13         1.9559   -1.1643   -3.5470 C.ar      1 <0>         0.1073
     19 C14         0.5830   -1.3432   -3.5032 C.ar      1 <0>        -0.1048
     20 C15        -0.1202   -1.5782   -4.6703 C.ar      1 <0>        -0.1183
     21 C16         0.5492   -1.6343   -5.8839 C.ar      1 <0>         0.0857
     22 C17         1.9260   -1.4458   -5.9325 C.ar      1 <0>        -0.1372
     23 O3         -0.1439   -1.8645   -7.0305 O.3       1 <0>        -0.2421
     24 C18        -0.0585   -3.0968   -7.5895 C.ar      1 <0>         0.1841
     25 C19         0.7884   -4.0595   -7.0679 C.ar      1 <0>        -0.2656
     26 C20         0.8543   -5.3132   -7.6616 C.ar      1 <0>         0.1645
     27 N3          0.1319   -5.6193   -8.7140 N.ar      1 <0>        -0.4950
     28 C21        -0.7073   -4.7377   -9.2698 C.ar      1 <0>         0.1714
     29 C22        -0.8353   -3.4395   -8.7185 C.ar      1 <0>        -0.1075
     30 C23        -1.7200   -2.5187   -9.3005 C.ar      1 <0>        -0.1531
     31 C24        -2.4545   -2.8843  -10.3909 C.ar      1 <0>         0.1121
     32 C25        -2.3340   -4.1711  -10.9358 C.ar      1 <0>         0.1508
     33 C26        -1.4732   -5.0824  -10.3963 C.ar      1 <0>        -0.1800
     34 O4         -3.0763   -4.5113  -12.0220 O.3       1 <0>        -0.3002
     35 C27        -2.9105   -5.8359  -12.5320 C.3       1 <0>         0.0211
     36 O5         -3.3121   -1.9922  -10.9546 O.3       1 <0>        -0.3022
     37 C28        -3.3900   -0.6982  -10.3533 C.3       1 <0>         0.0229
     38 H2          0.9103   -1.6205    1.3129 H         1 <0>         0.0690
     39 H3          2.4582   -1.6307    2.1916 H         1 <0>         0.0590
     40 H4          1.0900   -0.6747    2.8100 H         1 <0>         0.0712
     41 H5          4.6948   -0.2690    1.5469 H         1 <0>         0.1176
     42 H6          6.2488    1.0813    2.8978 H         1 <0>         0.1250
     43 H7          5.4479    3.1165    4.0290 H         1 <0>         0.1247
     44 H8          3.0931    3.8019    3.8086 H         1 <0>         0.1264
     45 H9          1.5411    2.4562    2.4509 H         1 <0>         0.1264
     46 H10         3.7190   -0.3764   -0.1225 H         1 <0>         0.3962
     47 H11         4.5846   -0.5364   -1.5563 H         1 <0>         0.1011
     48 H12         4.4208   -2.1019   -2.3971 H         1 <0>         0.0953
     49 H13         4.3508    0.6594   -3.7152 H         1 <0>         0.0746
     50 H14         5.6990   -0.5033   -3.8020 H         1 <0>         0.1286
     51 H15         0.0623   -1.2996   -2.5580 H         1 <0>         0.1856
     52 H16        -1.1905   -1.7183   -4.6370 H         1 <0>         0.1399
     53 H17         2.4451   -1.4898   -6.8785 H         1 <0>         0.1445
     54 H18         1.3956   -3.8365   -6.2031 H         1 <0>         0.1423
     55 H19         1.5185   -6.0566   -7.2463 H         1 <0>         0.1620
     56 H20        -1.8193   -1.5258   -8.8872 H         1 <0>         0.1491
     57 H21        -1.3902   -6.0697  -10.8262 H         1 <0>         0.1536
     58 H22        -3.5590   -5.9761  -13.3968 H         1 <0>         0.1053
     59 H23        -1.8721   -5.9836  -12.8289 H         1 <0>         0.0605
     60 H24        -3.1738   -6.5583  -11.7594 H         1 <0>         0.0605
     61 H25        -4.1087   -0.0867  -10.8989 H         1 <0>         0.1044
     62 H26        -3.7111   -0.7981   -9.3165 H         1 <0>         0.0582
     63 H27        -2.4097   -0.2228  -10.3859 H         1 <0>         0.0581
@<TRIPOS>BOND
     1    1    2 1
     2    1   38 1
     3    1   39 1
     4    1   40 1
     5    2    3 1
     6    2    4 1
     7    2   10 1
     8    4    9 ar
     9    4    5 ar
    10    5    6 ar
    11    5   41 1
    12    6    7 ar
    13    6   42 1
    14    7    8 ar
    15    7   43 1
    16    8    9 ar
    17    8   44 1
    18    9   45 1
    19   10   11 am
    20   10   46 1
    21   11   12 2
    22   11   13 am
    23   13   18 1
    24   13   14 1
    25   14   15 1
    26   14   47 1
    27   14   48 1
    28   15   16 1
    29   15   49 1
    30   15   50 1
    31   16   17 1
    32   17   22 ar
    33   17   18 ar
    34   18   19 ar
    35   19   20 ar
    36   19   51 1
    37   20   21 ar
    38   20   52 1
    39   21   22 ar
    40   21   23 1
    41   22   53 1
    42   23   24 1
    43   24   29 ar
    44   24   25 ar
    45   25   26 ar
    46   25   54 1
    47   26   27 ar
    48   26   55 1
    49   27   28 ar
    50   28   33 ar
    51   28   29 ar
    52   29   30 ar
    53   30   31 ar
    54   30   56 1
    55   31   32 ar
    56   31   36 1
    57   32   33 ar
    58   32   34 1
    59   33   57 1
    60   34   35 1
    61   35   58 1
    62   35   59 1
    63   35   60 1
    64   36   37 1
    65   37   61 1
    66   37   62 1
    67   37   63 1
@<TRIPOS>MOLECULE
CHEMBL390156
   64    69     0     0     0
SMALL
USER_CHARGES

@<TRIPOS>ATOM
      1 C1         -0.0178    1.4648    0.0101 C.3       1 <0>        -0.0459
      2 N1          0.0021   -0.0041    0.0020 N.4       1 <0>        -0.3885
      3 C2         -1.3761   -0.5122    0.0107 C.3       1 <0>        -0.0023
      4 C3         -1.3560   -2.0421   -0.0167 C.3       1 <0>         0.0248
      5 N2         -0.6244   -2.5407    1.1564 N.3       1 <0>        -0.5343
      6 C4          0.7499   -2.0201    1.1745 C.3       1 <0>         0.0187
      7 C5          0.7125   -0.4904    1.1921 C.3       1 <0>        -0.0023
      8 C6         -0.6316   -4.0091    1.1963 C.3       1 <0>         0.0983
      9 C7         -0.0938   -4.4782    2.5236 C.ar      1 <0>        -0.0832
     10 C8          1.2623   -4.7055    2.6779 C.ar      1 <0>        -0.1166
     11 C9          1.7629   -5.1349    3.8890 C.ar      1 <0>        -0.0926
     12 C10         0.8977   -5.3413    4.9667 C.ar      1 <0>        -0.0231
     13 C11        -0.4668   -5.1086    4.8001 C.ar      1 <0>        -0.0674
     14 C12        -0.9565   -4.6753    3.5879 C.ar      1 <0>        -0.0725
     15 C13        -1.1304   -5.4146    6.1204 C.3       1 <0>        -0.0108
     16 C14        -0.0193   -5.8412    7.0489 C.2       1 <0>        -0.2181
     17 C15         1.1508   -5.7901    6.3537 C.2       1 <0>         0.0927
     18 N3          2.1468   -6.1787    7.2054 N.pl3     1 <0>        -0.4529
     19 H1          3.0904   -6.2401    6.9891 H         1 <0>         0.4424
     20 N4          1.5658   -6.4719    8.4450 N.2       1 <0>        -0.2500
     21 C16         0.2680   -6.2702    8.3544 C.2       1 <0>         0.1609
     22 C17        -0.7212   -6.4632    9.4449 C.2       1 <0>        -0.0530
     23 C18        -0.5590   -7.4782   10.3747 C.2       1 <0>        -0.1011
     24 C19        -1.4951   -7.6194   11.3635 C.2       1 <0>        -0.0553
     25 S1         -2.6378   -6.3001   10.9903 S.3       1 <0>         0.1156
     26 C20        -1.8082   -5.6388    9.5549 C.2       1 <0>        -0.1447
     27 C21        -1.5448   -8.5793   12.4250 C.1       1 <0>        -0.0723
     28 C22        -1.5855   -9.3663   13.2952 C.1       1 <0>        -0.1267
     29 C23        -1.6366  -10.3530   14.3864 C.3       1 <0>         0.1772
     30 O1         -2.7996  -10.1215   15.1838 O.3       1 <0>        -0.3105
     31 C24        -2.9979  -10.9519   16.2412 C.ar      1 <0>         0.1266
     32 C25        -2.0887  -11.9649   16.5092 C.ar      1 <0>        -0.2099
     33 C26        -2.2923  -12.8073   17.5850 C.ar      1 <0>        -0.0791
     34 C27        -3.4012  -12.6418   18.3940 C.ar      1 <0>        -0.1550
     35 C28        -4.3091  -11.6332   18.1288 C.ar      1 <0>        -0.0792
     36 C29        -4.1068  -10.7843   17.0579 C.ar      1 <0>        -0.1490
     37 H2          1.0047    1.8421    0.0024 H         1 <0>         0.1240
     38 H3         -0.5450    1.8259   -0.8730 H         1 <0>         0.1245
     39 H4         -0.5280    1.8163    0.9069 H         1 <0>         0.1232
     40 H5         -1.8832   -0.1716    0.9134 H         1 <0>         0.1379
     41 H6         -1.9060   -0.1400   -0.8661 H         1 <0>         0.1363
     42 H7         -2.3783   -2.4196    0.0047 H         1 <0>         0.1252
     43 H8         -0.8610   -2.3831   -0.9260 H         1 <0>         0.0616
     44 H9          1.2641   -2.3816    2.0650 H         1 <0>         0.1266
     45 H10         1.2796   -2.3607    0.2848 H         1 <0>         0.0612
     46 H11         1.7310   -0.1020    1.1912 H         1 <0>         0.1352
     47 H12         0.1947   -0.1499    2.0888 H         1 <0>         0.1376
     48 H13        -1.6519   -4.3710    1.0694 H         1 <0>         0.0999
     49 H14        -0.0057   -4.3975    0.3929 H         1 <0>         0.0584
     50 H15         1.9320   -4.5463    1.8456 H         1 <0>         0.1245
     51 H16         2.8220   -5.3116    4.0043 H         1 <0>         0.1261
     52 H17        -2.0141   -4.4930    3.4667 H         1 <0>         0.1328
     53 H18        -1.6240   -4.5237    6.5088 H         1 <0>         0.1014
     54 H19        -1.8517   -6.2230    6.0005 H         1 <0>         0.1046
     55 H20         0.2890   -8.1448   10.3200 H         1 <0>         0.1449
     56 H21        -2.0917   -4.8030    8.9324 H         1 <0>         0.1947
     57 H22        -1.6784  -11.3578   13.9659 H         1 <0>         0.0959
     58 H23        -0.7456  -10.2554   15.0065 H         1 <0>         0.0952
     59 H24        -1.2227  -12.0950   15.8772 H         1 <0>         0.1293
     60 H25        -1.5848  -13.5961   17.7941 H         1 <0>         0.1272
     61 H26        -3.5588  -13.3016   19.2344 H         1 <0>         0.1259
     62 H27        -5.1747  -11.5062   18.7620 H         1 <0>         0.1314
     63 H28        -4.8139   -9.9939   16.8537 H         1 <0>         0.1314
     64 H29         0.4748   -0.3293   -0.8280 H         1 <0>         0.4223
@<TRIPOS>BOND
     1    1    2 1
     2    1   37 1
     3    1   38 1
     4    1   39 1
     5    2    7 1
     6    2    3 1
     7    2   64 1
     8    3    4 1
     9    3   40 1
    10    3   41 1
    11    4    5 1
    12    4   42 1
    13    4   43 1
    14    5    6 1
    15    5    8 1
    16    6    7 1
    17    6   44 1
    18    6   45 1
    19    7   46 1
    20    7   47 1
    21    8    9 1
    22    8   48 1
    23    8   49 1
    24    9   14 ar
    25    9   10 ar
    26   10   11 ar
    27   10   50 1
    28   11   12 ar
    29   11   51 1
    30   12   17 1
    31   12   13 ar
    32   13   14 ar
    33   13   15 1
    34   14   52 1
    35   15   16 1
    36   15   53 1
    37   15   54 1
    38   16   21 1
    39   16   17 2
    40   17   18 1
    41   18   19 1
    42   18   20 1
    43   20   21 2
    44   21   22 1
    45   22   26 2
    46   22   23 1
    47   23   24 2
    48   23   55 1
    49   24   25 1
    50   24   27 1
    51   25   26 1
    52   26   56 1
    53   27   28 3
    54   28   29 1
    55   29   30 1
    56   29   57 1
    57   29   58 1
    58   30   31 1
    59   31   36 ar
    60   31   32 ar
    61   32   33 ar
    62   32   59 1
    63   33   34 ar
    64   33   60 1
    65   34   35 ar
    66   34   61 1
    67   35   36 ar
    68   35   62 1
    69   36   63 1
@<TRIPOS>MOLECULE
CHEMBL390156__1
   64    69     0     0     0
SMALL
USER_CHARGES

@<TRIPOS>ATOM
      1 C1         -0.0178    1.4648    0.0101 C.3       1 <0>        -0.0458
      2 N1          0.0021   -0.0041    0.0020 N.4       1 <0>        -0.3884
      3 C2         -1.3761   -0.5122    0.0107 C.3       1 <0>        -0.0023
      4 C3         -1.3560   -2.0421   -0.0167 C.3       1 <0>         0.0248
      5 N2         -0.6244   -2.5407    1.1564 N.3       1 <0>        -0.5343
      6 C4          0.7499   -2.0201    1.1745 C.3       1 <0>         0.0185
      7 C5          0.7125   -0.4904    1.1921 C.3       1 <0>        -0.0025
      8 C6         -0.6316   -4.0091    1.1963 C.3       1 <0>         0.0990
      9 C7         -0.0938   -4.4782    2.5236 C.ar      1 <0>        -0.0837
     10 C8          1.2620   -4.7055    2.6780 C.ar      1 <0>        -0.1192
     11 C9          1.7607   -5.1345    3.8904 C.ar      1 <0>        -0.0833
     12 C10         0.8957   -5.3405    4.9666 C.ar      1 <0>        -0.0044
     13 C11        -0.4666   -5.1093    4.8021 C.ar      1 <0>        -0.0686
     14 C12        -0.9558   -4.6753    3.5874 C.ar      1 <0>        -0.0763
     15 C13        -1.1468   -5.4115    6.1149 C.3       1 <0>        -0.0004
     16 C14        -0.0552   -5.8414    7.0633 C.2       1 <0>        -0.2341
     17 C15         1.1578   -5.7919    6.3569 C.2       1 <0>         0.0861
     18 N3          2.1219   -6.1666    7.1764 N.2       1 <0>        -0.2499
     19 H1          2.0356   -6.7641    9.2097 H         1 <0>         0.4475
     20 N4          1.5557   -6.4642    8.4219 N.pl3     1 <0>        -0.4573
     21 C16         0.2108   -6.2575    8.3325 C.2       1 <0>         0.1743
     22 C17        -0.7787   -6.4499    9.4165 C.2       1 <0>        -0.0781
     23 C18        -0.5289   -5.9750   10.6962 C.2       1 <0>        -0.1220
     24 C19        -1.4722   -6.1750   11.6669 C.2       1 <0>        -0.0484
     25 S1         -2.7485   -7.0505   10.7781 S.3       1 <0>         0.1362
     26 C20        -1.9634   -7.0960    9.1759 C.2       1 <0>        -0.1383
     27 C21        -1.4426   -5.7830   13.0439 C.1       1 <0>        -0.0789
     28 C22        -1.4183   -5.4616   14.1728 C.1       1 <0>        -0.1180
     29 C23        -1.3878   -5.0587   15.5882 C.3       1 <0>         0.1758
     30 O1         -2.5938   -5.4790   16.2292 O.3       1 <0>        -0.3103
     31 C24        -2.7267   -5.1829   17.5489 C.ar      1 <0>         0.1256
     32 C25        -1.7195   -4.4969   18.2119 C.ar      1 <0>        -0.2098
     33 C26        -1.8571   -4.1967   19.5533 C.ar      1 <0>        -0.0792
     34 C27        -2.9972   -4.5799   20.2352 C.ar      1 <0>        -0.1540
     35 C28        -4.0023   -5.2641   19.5768 C.ar      1 <0>        -0.0787
     36 C29        -3.8722   -5.5612   18.2340 C.ar      1 <0>        -0.1481
     37 H2          1.0047    1.8421    0.0024 H         1 <0>         0.1239
     38 H3         -0.5450    1.8259   -0.8730 H         1 <0>         0.1241
     39 H4         -0.5280    1.8163    0.9069 H         1 <0>         0.1230
     40 H5         -1.8832   -0.1716    0.9134 H         1 <0>         0.1377
     41 H6         -1.9060   -0.1400   -0.8661 H         1 <0>         0.1358
     42 H7         -2.3783   -2.4196    0.0047 H         1 <0>         0.1248
     43 H8         -0.8610   -2.3831   -0.9260 H         1 <0>         0.0613
     44 H9          1.2641   -2.3816    2.0650 H         1 <0>         0.1277
     45 H10         1.2796   -2.3607    0.2848 H         1 <0>         0.0613
     46 H11         1.7310   -0.1020    1.1912 H         1 <0>         0.1353
     47 H12         0.1947   -0.1499    2.0888 H         1 <0>         0.1375
     48 H13        -1.6519   -4.3710    1.0694 H         1 <0>         0.0991
     49 H14        -0.0057   -4.3975    0.3929 H         1 <0>         0.0582
     50 H15         1.9324   -4.5469    1.8463 H         1 <0>         0.1242
     51 H16         2.8197   -5.3112    4.0069 H         1 <0>         0.1297
     52 H17        -2.0134   -4.4932    3.4656 H         1 <0>         0.1309
     53 H18        -1.6430   -4.5184    6.4945 H         1 <0>         0.0967
     54 H19        -1.8708   -6.2160    5.9856 H         1 <0>         0.0966
     55 H20         0.3920   -5.4579   10.9215 H         1 <0>         0.1402
     56 H21        -2.3277   -7.5242    8.2538 H         1 <0>         0.1980
     57 H22        -0.5337   -5.5240   16.0802 H         1 <0>         0.0961
     58 H23        -1.2994   -3.9743   15.6555 H         1 <0>         0.0958
     59 H24        -0.8284   -4.1980   17.6799 H         1 <0>         0.1288
     60 H25        -1.0733   -3.6627   20.0699 H         1 <0>         0.1273
     61 H26        -3.1028   -4.3446   21.2840 H         1 <0>         0.1264
     62 H27        -4.8917   -5.5626   20.1118 H         1 <0>         0.1321
     63 H28        -4.6594   -6.0918   17.7191 H         1 <0>         0.1319
     64 H29         0.4748   -0.3293   -0.8280 H         1 <0>         0.4222
@<TRIPOS>BOND
     1    1    2 1
     2    1   37 1
     3    1   38 1
     4    1   39 1
     5    2    7 1
     6    2    3 1
     7    2   64 1
     8    3    4 1
     9    3   40 1
    10    3   41 1
    11    4    5 1
    12    4   42 1
    13    4   43 1
    14    5    6 1
    15    5    8 1
    16    6    7 1
    17    6   44 1
    18    6   45 1
    19    7   46 1
    20    7   47 1
    21    8    9 1
    22    8   48 1
    23    8   49 1
    24    9   14 ar
    25    9   10 ar
    26   10   11 ar
    27   10   50 1
    28   11   12 ar
    29   11   51 1
    30   12   13 ar
    31   12   17 1
    32   13   14 ar
    33   13   15 1
    34   14   52 1
    35   15   53 1
    36   15   54 1
    37   15   16 1
    38   16   17 1
    39   16   21 2
    40   17   18 2
    41   18   20 1
    42   19   20 1
    43   20   21 1
    44   21   22 1
    45   22   26 2
    46   22   23 1
    47   23   24 2
    48   23   55 1
    49   24   25 1
    50   24   27 1
    51   25   26 1
    52   26   56 1
    53   27   28 3
    54   28   29 1
    55   29   30 1
    56   29   57 1
    57   29   58 1
    58   30   31 1
    59   31   36 ar
    60   31   32 ar
    61   32   33 ar
    62   32   59 1
    63   33   34 ar
    64   33   60 1
    65   34   35 ar
    66   34   61 1
    67   35   36 ar
    68   35   62 1
    69   36   63 1
@<TRIPOS>MOLECULE
CHEMBL372606
   59    62     0     0     0
SMALL
USER_CHARGES

@<TRIPOS>ATOM
      1 C1         -0.0365    1.4494   -0.1249 C.3       1 <0>         0.0307
      2 O1         -0.0131    0.0206   -0.1121 O.3       1 <0>        -0.3848
      3 C2          0.6643   -0.5395    1.0146 C.3       1 <0>         0.0627
      4 C3          0.6275   -2.0664    0.9245 C.3       1 <0>         0.0532
      5 O2          1.3738   -2.4944   -0.2165 O.3       1 <0>        -0.2852
      6 C4          1.4415   -3.8320   -0.4428 C.ar      1 <0>         0.1682
      7 C5          0.8041   -4.6924    0.4057 C.ar      1 <0>        -0.1822
      8 C6          0.8734   -6.0733    0.1728 C.ar      1 <0>         0.1927
      9 C7          1.6067   -6.5559   -0.9436 C.ar      1 <0>        -0.1527
     10 C8          2.2495   -5.6539   -1.7960 C.ar      1 <0>        -0.1619
     11 C9          2.1607   -4.3119   -1.5486 C.ar      1 <0>         0.1279
     12 O3          2.7801   -3.4333   -2.3797 O.3       1 <0>        -0.2942
     13 C10         3.4963   -3.9827   -3.4876 C.3       1 <0>         0.0215
     14 C11         1.6584   -7.9582   -1.1537 C.ar      1 <0>         0.3646
     15 N1          1.0167   -8.7448   -0.2926 N.ar      1 <0>        -0.5158
     16 C12         0.3481   -8.2453    0.7310 C.ar      1 <0>         0.3217
     17 N2          0.2664   -6.9572    0.9739 N.ar      1 <0>        -0.5110
     18 N3          2.3439   -8.4838   -2.2053 N.2       1 <0>        -0.3869
     19 C13         3.6226   -8.7107   -2.1014 C.2       1 <0>         0.1667
     20 C14         4.4601   -9.1698   -3.2843 C.3       1 <0>        -0.1063
     21 C15         5.6754   -8.2689   -3.3404 C.2       1 <0>         0.4044
     22 C16         6.3450   -7.8768   -2.0852 C.2       1 <0>         0.1119
     23 C17         5.7196   -7.9901   -0.8876 C.2       1 <0>        -0.2914
     24 C18         4.3563   -8.5305   -0.8178 C.2       1 <0>         0.3850
     25 O4          3.8481   -8.8218    0.2486 O.2       1 <0>        -0.3973
     26 O5          7.6086   -7.3951   -2.1303 O.3       1 <0>        -0.2766
     27 C19         8.2089   -7.0309   -0.8857 C.3       1 <0>         0.1736
     28 C20         9.5726   -6.5315   -1.1262 C.1       1 <0>        -0.1832
     29 C21        10.6602   -6.1332   -1.3180 C.1       1 <0>        -0.0727
     30 C22        11.9868   -5.6474   -1.5519 C.ar      1 <0>        -0.0010
     31 C23        12.4913   -5.5857   -2.8514 C.ar      1 <0>        -0.0899
     32 C24        13.7702   -5.1162   -3.0701 C.ar      1 <0>        -0.1181
     33 C25        14.5517   -4.7070   -2.0044 C.ar      1 <0>        -0.1050
     34 C26        14.0573   -4.7656   -0.7136 C.ar      1 <0>        -0.1189
     35 C27        12.7783   -5.2282   -0.4819 C.ar      1 <0>        -0.0927
     36 O6          6.0936   -7.8747   -4.4033 O.2       1 <0>        -0.3814
     37 H1          0.9850    1.8293   -0.1423 H         1 <0>         0.0437
     38 H2         -0.5682    1.7961   -1.0110 H         1 <0>         0.0887
     39 H3         -0.5441    1.8125    0.7687 H         1 <0>         0.0427
     40 H4          1.7003   -0.2008    1.0209 H         1 <0>         0.0638
     41 H5          0.1712   -0.2176    1.9319 H         1 <0>         0.0761
     42 H6          1.0652   -2.4942    1.8264 H         1 <0>         0.0855
     43 H7         -0.4058   -2.3999    0.8288 H         1 <0>         0.0794
     44 H8          0.2504   -4.3112    1.2510 H         1 <0>         0.1582
     45 H9          2.8091   -6.0140   -2.6465 H         1 <0>         0.1431
     46 H10         3.9417   -3.1753   -4.0687 H         1 <0>         0.1099
     47 H11         4.2823   -4.6428   -3.1208 H         1 <0>         0.0542
     48 H12         2.8110   -4.5491   -4.1183 H         1 <0>         0.0611
     49 H13        -0.1553   -8.9280    1.3995 H         1 <0>         0.2029
     50 H14         4.7705  -10.2048   -3.1411 H         1 <0>         0.1549
     51 H15         6.2238   -7.6794    0.0155 H         1 <0>         0.1628
     52 H16         7.6147   -6.2504   -0.4104 H         1 <0>         0.1008
     53 H17         8.2512   -7.9033   -0.2337 H         1 <0>         0.1035
     54 H18        11.8823   -5.9052   -3.6841 H         1 <0>         0.1292
     55 H19        14.1620   -5.0683   -4.0753 H         1 <0>         0.1310
     56 H20        15.5522   -4.3406   -2.1808 H         1 <0>         0.1285
     57 H21        14.6725   -4.4447    0.1141 H         1 <0>         0.1305
     58 H22        12.3918   -5.2692    0.5257 H         1 <0>         0.1278
     59 H23         3.8846   -9.0783   -4.2054 H         1 <0>         0.1462
@<TRIPOS>BOND
     1    1    2 1
     2    1   37 1
     3    1   38 1
     4    1   39 1
     5    2    3 1
     6    3    4 1
     7    3   40 1
     8    3   41 1
     9    4    5 1
    10    4   42 1
    11    4   43 1
    12    5    6 1
    13    6   11 ar
    14    6    7 ar
    15    7    8 ar
    16    7   44 1
    17    8   17 ar
    18    8    9 ar
    19    9   10 ar
    20    9   14 ar
    21   10   11 ar
    22   10   45 1
    23   11   12 1
    24   12   13 1
    25   13   46 1
    26   13   47 1
    27   13   48 1
    28   14   15 ar
    29   14   18 1
    30   15   16 ar
    31   16   17 ar
    32   16   49 1
    33   18   19 2
    34   19   24 1
    35   19   20 1
    36   20   50 1
    37   20   59 1
    38   20   21 1
    39   21   36 2
    40   21   22 1
    41   22   26 1
    42   22   23 2
    43   23   24 1
    44   23   51 1
    45   24   25 2
    46   26   27 1
    47   27   28 1
    48   27   52 1
    49   27   53 1
    50   28   29 3
    51   29   30 1
    52   30   35 ar
    53   30   31 ar
    54   31   32 ar
    55   31   54 1
    56   32   33 ar
    57   32   55 1
    58   33   34 ar
    59   33   56 1
    60   34   35 ar
    61   34   57 1
    62   35   58 1
@<TRIPOS>MOLECULE
CHEMBL199191
   56    58     0     0     0
SMALL
USER_CHARGES

@<TRIPOS>ATOM
      1 C1         -3.0767    1.9572    0.5284 C.3       1 <0>        -0.1885
      2 C2         -2.6501    0.5286    0.8719 C.3       1 <0>        -0.0184
      3 N1         -1.9291   -0.0545   -0.2676 N.4       1 <0>        -0.3822
      4 C3         -0.6775    0.6833   -0.4845 C.3       1 <0>        -0.0150
      5 C4          0.0084    0.1633   -1.7494 C.3       1 <0>        -0.1904
      6 C5         -1.6243   -1.4634    0.0150 C.3       1 <0>        -0.0272
      7 C6         -2.9288   -2.2553    0.1251 C.3       1 <0>         0.0959
      8 N2         -2.6238   -3.6799    0.2796 N.am      1 <0>        -0.7289
      9 C7         -3.6249   -4.5746    0.3963 C.2       1 <0>         0.6108
     10 O1         -4.7814   -4.1994    0.3733 O.2       1 <0>        -0.5177
     11 C8         -3.3180   -6.0080    0.5518 C.2       1 <0>        -0.2422
     12 C9         -3.1307   -6.6969    1.7692 C.2       1 <0>        -0.0527
     13 C10        -2.8655   -8.0133    1.4468 C.2       1 <0>        -0.0128
     14 N3         -2.8894   -8.1286    0.0722 N.pl3     1 <0>        -0.4917
     15 H1         -2.7353   -8.9469   -0.4254 H         1 <0>         0.4275
     16 C11        -3.1658   -6.9300   -0.4680 C.2       1 <0>         0.1197
     17 C12        -3.2861   -6.6375   -1.9414 C.3       1 <0>        -0.1009
     18 C13        -2.6137   -9.0577    2.3630 C.2       1 <0>         0.0841
     19 C14        -1.7203  -10.0593    2.0394 C.2       1 <0>        -0.1927
     20 C15        -1.4407  -11.2967    2.7990 C.ar      1 <0>        -0.1168
     21 C16        -1.9346  -11.8259    3.9878 C.ar      1 <0>        -0.0592
     22 C17        -1.4327  -13.0460    4.4182 C.ar      1 <0>         0.0356
     23 C18        -0.4687  -13.6846    3.6553 C.ar      1 <0>         0.1220
     24 N4         -0.0190  -13.1599    2.5337 N.ar      1 <0>        -0.4690
     25 C19        -0.4639  -11.9965    2.0751 C.ar      1 <0>         0.3394
     26 N5         -0.1373  -11.2714    0.9392 N.am      1 <0>        -0.6316
     27 C20        -0.8443  -10.1315    0.8617 C.2       1 <0>         0.5691
     28 O2         -0.7704   -9.3024   -0.0275 O.2       1 <0>        -0.5056
     29 F1         -1.8779  -13.6032    5.5656 F         1 <0>        -0.1203
     30 C21        -3.2052   -6.1090    3.1548 C.3       1 <0>        -0.0943
     31 H2         -3.6116    2.3898    1.3739 H         1 <0>         0.1079
     32 H3         -2.1934    2.5579    0.3115 H         1 <0>         0.0808
     33 H4         -3.7289    1.9416   -0.3447 H         1 <0>         0.0816
     34 H5         -1.9978    0.5441    1.7450 H         1 <0>         0.1316
     35 H6         -3.5333   -0.0722    1.0889 H         1 <0>         0.1336
     36 H7         -0.8968    1.7447   -0.6003 H         1 <0>         0.1358
     37 H8         -0.0181    0.5399    0.3715 H         1 <0>         0.1305
     38 H9          0.9697    0.6620   -1.8726 H         1 <0>         0.1076
     39 H10         0.1654   -0.9118   -1.6618 H         1 <0>         0.0794
     40 H11        -0.6213    0.3691   -2.6150 H         1 <0>         0.0820
     41 H12        -1.0177   -1.8730   -0.7928 H         1 <0>         0.1397
     42 H13        -1.0753   -1.5352    0.9539 H         1 <0>         0.1384
     43 H14        -3.4924   -1.9084    0.9912 H         1 <0>         0.0905
     44 H15        -3.5215   -2.1065   -0.7775 H         1 <0>         0.0881
     45 H16        -1.7013   -3.9791    0.2980 H         1 <0>         0.4100
     46 H17        -2.3101   -6.3565   -2.3370 H         1 <0>         0.0849
     47 H18        -3.6462   -7.5260   -2.4600 H         1 <0>         0.0791
     48 H19        -3.9891   -5.8184   -2.0930 H         1 <0>         0.0846
     49 H20        -3.1199   -9.0729    3.3169 H         1 <0>         0.1608
     50 H21        -2.6864  -11.3017    4.5592 H         1 <0>         0.1563
     51 H22        -0.0764  -14.6343    3.9880 H         1 <0>         0.1823
     52 H23         0.5171  -11.5535    0.2812 H         1 <0>         0.4268
     53 H24        -4.2283   -6.1780    3.5243 H         1 <0>         0.0796
     54 H25        -2.5408   -6.6607    3.8198 H         1 <0>         0.0730
     55 H26        -2.9003   -5.0630    3.1225 H         1 <0>         0.0646
     56 H27        -2.5030    0.0061   -1.0952 H         1 <0>         0.4248
@<TRIPOS>BOND
     1    1    2 1
     2    1   31 1
     3    1   32 1
     4    1   33 1
     5    2    3 1
     6    2   34 1
     7    2   35 1
     8    3    4 1
     9    3    6 1
    10    3   56 1
    11    4    5 1
    12    4   36 1
    13    4   37 1
    14    5   38 1
    15    5   39 1
    16    5   40 1
    17    6    7 1
    18    6   41 1
    19    6   42 1
    20    7    8 1
    21    7   43 1
    22    7   44 1
    23    8    9 am
    24    8   45 1
    25    9   10 2
    26    9   11 1
    27   11   16 2
    28   11   12 1
    29   12   13 2
    30   12   30 1
    31   13   14 1
    32   13   18 1
    33   14   15 1
    34   14   16 1
    35   16   17 1
    36   17   46 1
    37   17   47 1
    38   17   48 1
    39   18   19 2
    40   18   49 1
    41   19   27 1
    42   19   20 1
    43   20   25 ar
    44   20   21 ar
    45   21   22 ar
    46   21   50 1
    47   22   23 ar
    48   22   29 1
    49   23   24 ar
    50   23   51 1
    51   24   25 ar
    52   25   26 1
    53   26   27 am
    54   26   52 1
    55   27   28 2
    56   30   53 1
    57   30   54 1
    58   30   55 1
@<TRIPOS>MOLECULE
CHEMBL270692
   64    68     0     0     0
SMALL
USER_CHARGES

@<TRIPOS>ATOM
      1 C1          3.5882    0.2297    1.3296 C.3       1 <0>        -0.1108
      2 C2          2.5339   -0.6412    0.6964 C.ar      1 <0>        -0.0773
      3 C3          2.8157   -1.3348   -0.4641 C.ar      1 <0>        -0.1200
      4 C4          1.8486   -2.1338   -1.0461 C.ar      1 <0>        -0.1048
      5 C5          0.5968   -2.2416   -0.4684 C.ar      1 <0>        -0.1186
      6 C6          0.3086   -1.5511    0.6924 C.ar      1 <0>        -0.0577
      7 C7          1.2794   -0.7518    1.2825 C.ar      1 <0>         0.1435
      8 N1          0.9927   -0.0560    2.4607 N.pl3     1 <0>        -0.6396
      9 C8          0.8397   -0.7426    3.6473 C.2       1 <0>         0.5719
     10 N2          0.8456   -2.0458    3.7690 N.2       1 <0>        -0.5141
     11 C9          0.6701   -2.3858    5.0735 C.ar      1 <0>         0.0934
     12 C10         0.5983   -3.6094    5.7439 C.ar      1 <0>        -0.0861
     13 C11         0.4090   -3.6321    7.1077 C.ar      1 <0>        -0.1042
     14 C12         0.2892   -2.4490    7.8213 C.ar      1 <0>        -0.1213
     15 C13         0.3580   -1.2324    7.1735 C.ar      1 <0>        -0.0749
     16 C14         0.5481   -1.1911    5.8014 C.ar      1 <0>         0.0384
     17 N3          0.6647   -0.1623    4.8766 N.pl3     1 <0>        -0.4403
     18 C15         0.6105    1.1991    5.1460 C.ar      1 <0>         0.6348
     19 N4          0.4409    1.6243    6.3946 N.ar      1 <0>        -0.5968
     20 C16         0.3896    2.9195    6.6527 C.ar      1 <0>         0.4137
     21 N5          0.5061    3.7971    5.6717 N.ar      1 <0>        -0.5986
     22 C17         0.6761    3.3788    4.4198 C.ar      1 <0>         0.6338
     23 N6          0.7335    2.0768    4.1584 N.ar      1 <0>        -0.6354
     24 N7          0.7978    4.2960    3.3946 N.pl3     1 <0>        -0.6171
     25 C18         0.8568    5.6650    3.6833 C.ar      1 <0>         0.2278
     26 C19         1.4589    6.1015    4.8555 C.ar      1 <0>        -0.2245
     27 C20         1.5177    7.4564    5.1420 C.ar      1 <0>         0.1704
     28 C21         0.9741    8.3780    4.2552 C.ar      1 <0>         0.0186
     29 C22         0.3718    7.9402    3.0817 C.ar      1 <0>         0.1717
     30 C23         0.3182    6.5853    2.7944 C.ar      1 <0>        -0.2565
     31 O1         -0.1605    8.8412    2.2132 O.3       1 <0>        -0.2972
     32 C24        -0.7637    8.3207    1.0270 C.3       1 <0>         0.0232
     33 O2          1.0310    9.7092    4.5361 O.3       1 <0>        -0.3101
     34 C25         2.1766   10.4228    4.0668 C.3       1 <0>         0.0344
     35 O3          2.1068    7.8837    6.2908 O.3       1 <0>        -0.2969
     36 C26         2.6441    6.8814    7.1561 C.3       1 <0>         0.0251
     37 C27        -1.0560   -1.6689    1.3210 C.3       1 <0>        -0.1105
     38 H1          4.1715   -0.3612    2.0358 H         1 <0>         0.0699
     39 H2          4.2462    0.6245    0.5556 H         1 <0>         0.0696
     40 H3          3.1094    1.0557    1.8555 H         1 <0>         0.0605
     41 H4          3.7923   -1.2527   -0.9179 H         1 <0>         0.1261
     42 H5          2.0714   -2.6745   -1.9541 H         1 <0>         0.1259
     43 H6         -0.1563   -2.8662   -0.9257 H         1 <0>         0.1264
     44 H7          0.9015    0.9096    2.4437 H         1 <0>         0.4280
     45 H8          0.6905   -4.5345    5.1942 H         1 <0>         0.1327
     46 H9          0.3532   -4.5783    7.6254 H         1 <0>         0.1323
     47 H10         0.1407   -2.4800    8.8906 H         1 <0>         0.1330
     48 H11         0.2639   -0.3144    7.7347 H         1 <0>         0.1402
     49 H12         0.2518    3.2615    7.6679 H         1 <0>         0.2227
     50 H13         0.8425    3.9920    2.4746 H         1 <0>         0.4292
     51 H14         1.8814    5.3852    5.5446 H         1 <0>         0.1504
     52 H15        -0.1461    6.2452    1.8805 H         1 <0>         0.1399
     53 H16        -1.1475    9.1432    0.4235 H         1 <0>         0.1055
     54 H17        -0.0202    7.7662    0.4545 H         1 <0>         0.0578
     55 H18        -1.5836    7.6556    1.2981 H         1 <0>         0.0586
     56 H19         3.0773    9.9923    4.5045 H         1 <0>         0.0443
     57 H20         2.2301   10.3502    2.9806 H         1 <0>         0.0441
     58 H21         2.0964   11.4703    4.3574 H         1 <0>         0.0933
     59 H22         3.0834    7.3562    8.0334 H         1 <0>         0.1043
     60 H23         1.8474    6.2065    7.4690 H         1 <0>         0.0626
     61 H24         3.4112    6.3169    6.6260 H         1 <0>         0.0534
     62 H25        -1.0708   -2.5214    2.0001 H         1 <0>         0.0804
     63 H26        -1.2800   -0.7581    1.8763 H         1 <0>         0.0558
     64 H27        -1.8041   -1.8123    0.5413 H         1 <0>         0.0658
@<TRIPOS>BOND
     1    1    2 1
     2    1   38 1
     3    1   39 1
     4    1   40 1
     5    2    7 ar
     6    2    3 ar
     7    3    4 ar
     8    3   41 1
     9    4    5 ar
    10    4   42 1
    11    5    6 ar
    12    5   43 1
    13    6    7 ar
    14    6   37 1
    15    7    8 1
    16    8    9 1
    17    8   44 1
    18    9   17 1
    19    9   10 2
    20   10   11 1
    21   11   16 ar
    22   11   12 ar
    23   12   13 ar
    24   12   45 1
    25   13   14 ar
    26   13   46 1
    27   14   15 ar
    28   14   47 1
    29   15   16 ar
    30   15   48 1
    31   16   17 1
    32   17   18 1
    33   18   23 ar
    34   18   19 ar
    35   19   20 ar
    36   20   21 ar
    37   20   49 1
    38   21   22 ar
    39   22   23 ar
    40   22   24 1
    41   24   25 1
    42   24   50 1
    43   25   30 ar
    44   25   26 ar
    45   26   27 ar
    46   26   51 1
    47   27   28 ar
    48   27   35 1
    49   28   29 ar
    50   28   33 1
    51   29   30 ar
    52   29   31 1
    53   30   52 1
    54   31   32 1
    55   32   53 1
    56   32   54 1
    57   32   55 1
    58   33   34 1
    59   34   56 1
    60   34   57 1
    61   34   58 1
    62   35   36 1
    63   36   59 1
    64   36   60 1
    65   36   61 1
    66   37   62 1
    67   37   63 1
    68   37   64 1
@<TRIPOS>MOLECULE
CHEMBL270692__1
   65    69     0     0     0
SMALL
USER_CHARGES

@<TRIPOS>ATOM
      1 C1          3.4355   -2.0613    2.5307 C.3       1 <0>        -0.1275
      2 C2          2.3827   -2.0977    1.4530 C.ar      1 <0>        -0.0545
      3 C3          2.6909   -2.5955    0.2022 C.ar      1 <0>        -0.1139
      4 C4          1.7256   -2.6288   -0.7875 C.ar      1 <0>        -0.0711
      5 C5          0.4489   -2.1646   -0.5284 C.ar      1 <0>        -0.1138
      6 C6          0.1340   -1.6660    0.7204 C.ar      1 <0>        -0.0548
      7 C7          1.0998   -1.6359    1.7183 C.ar      1 <0>         0.0466
      8 N1          0.7828   -1.1372    2.9852 N.pl3     1 <0>        -0.5921
      9 C8          0.3635   -1.9964    3.9797 C.cat     1 <0>         0.6753
     10 N2          0.1344   -3.2754    3.8220 N.pl3     1 <0>        -0.5261
     11 C9         -0.2639   -3.8193    5.0026 C.ar      1 <0>         0.0645
     12 C10        -0.6270   -5.1120    5.3884 C.ar      1 <0>        -0.0780
     13 C11        -0.9931   -5.3591    6.6927 C.ar      1 <0>        -0.0758
     14 C12        -1.0043   -4.3341    7.6267 C.ar      1 <0>        -0.0767
     15 C13        -0.6483   -3.0519    7.2612 C.ar      1 <0>        -0.0633
     16 C14        -0.2771   -2.7854    5.9528 C.ar      1 <0>         0.0885
     17 N3          0.1301   -1.6400    5.2824 N.pl3     1 <0>        -0.4084
     18 C15         0.2709   -0.3707    5.8283 C.ar      1 <0>         0.6235
     19 N4          0.0142   -0.1684    7.1174 N.ar      1 <0>        -0.5854
     20 C16         0.1481    1.0388    7.6385 C.ar      1 <0>         0.4290
     21 N5          0.5371    2.0495    6.8813 N.ar      1 <0>        -0.5752
     22 C17         0.7957    1.8543    5.5905 C.ar      1 <0>         0.6429
     23 N6          0.6670    0.6401    5.0653 N.ar      1 <0>        -0.6399
     24 N7          1.2022    2.9106    4.7992 N.pl3     1 <0>        -0.6045
     25 C18         1.4569    4.1606    5.3767 C.ar      1 <0>         0.2096
     26 C19         1.9691    4.2383    6.6646 C.ar      1 <0>        -0.2228
     27 C20         2.2215    5.4752    7.2370 C.ar      1 <0>         0.1711
     28 C21         1.9622    6.6377    6.5210 C.ar      1 <0>         0.0295
     29 C22         1.4499    6.5590    5.2315 C.ar      1 <0>         0.1732
     30 C23         1.2025    5.3212    4.6588 C.ar      1 <0>        -0.2502
     31 O1          1.1957    7.6960    4.5300 O.3       1 <0>        -0.2937
     32 C24         0.6699    7.5403    3.2105 C.3       1 <0>         0.0225
     33 O2          2.2095    7.8533    7.0827 O.3       1 <0>        -0.3096
     34 C25         3.5110    8.4080    6.8820 C.3       1 <0>         0.0343
     35 O3          2.7224    5.5512    8.4990 O.3       1 <0>        -0.2933
     36 C26         2.9645    4.3164    9.1764 C.3       1 <0>         0.0251
     37 C27        -1.2573   -1.1599    1.0016 C.3       1 <0>        -0.1268
     38 H1          3.4125   -2.9949    3.0927 H         1 <0>         0.0756
     39 H2          4.4176   -1.9355    2.0751 H         1 <0>         0.0877
     40 H3          3.2376   -1.2271    3.2038 H         1 <0>         0.0653
     41 H4          3.6869   -2.9588   -0.0034 H         1 <0>         0.1419
     42 H5          1.9693   -3.0180   -1.7650 H         1 <0>         0.1420
     43 H6         -0.3025   -2.1918   -1.3036 H         1 <0>         0.1423
     44 H7          0.8577   -0.1869    3.1650 H         1 <0>         0.4511
     45 H8         -0.6208   -5.9148    4.6659 H         1 <0>         0.1537
     46 H9         -1.2741   -6.3586    6.9903 H         1 <0>         0.1572
     47 H10        -1.2937   -4.5406    8.6465 H         1 <0>         0.1576
     48 H11        -0.6589   -2.2578    7.9932 H         1 <0>         0.1651
     49 H12        -0.0612    1.1997    8.6858 H         1 <0>         0.2359
     50 H13         1.3112    2.7866    3.8433 H         1 <0>         0.4312
     51 H14         2.1706    3.3348    7.2209 H         1 <0>         0.1483
     52 H15         0.8083    5.2598    3.6552 H         1 <0>         0.1413
     53 H16         1.3749    6.9729    2.6030 H         1 <0>         0.0580
     54 H17        -0.2797    7.0073    3.2583 H         1 <0>         0.0588
     55 H18         0.5133    8.5221    2.7636 H         1 <0>         0.1088
     56 H19         3.5745    9.3754    7.3803 H         1 <0>         0.0973
     57 H20         4.2609    7.7351    7.2980 H         1 <0>         0.0458
     58 H21         3.6905    8.5367    5.8146 H         1 <0>         0.0459
     59 H22         3.3622    4.5193   10.1707 H         1 <0>         0.1075
     60 H23         2.0306    3.7614    9.2648 H         1 <0>         0.0612
     61 H24         3.6854    3.7266    8.6101 H         1 <0>         0.0530
     62 H25        -1.8493   -1.9562    1.4529 H         1 <0>         0.0751
     63 H26        -1.2046   -0.3136    1.6865 H         1 <0>         0.0671
     64 H27        -1.7245   -0.8439    0.0689 H         1 <0>         0.0871
     65 H28         0.2338   -3.7617    2.9886 H         1 <0>         0.4600
@<TRIPOS>BOND
     1    1    2 1
     2    1   38 1
     3    1   39 1
     4    1   40 1
     5    2    7 ar
     6    2    3 ar
     7    3    4 ar
     8    3   41 1
     9    4    5 ar
    10    4   42 1
    11    5    6 ar
    12    5   43 1
    13    6    7 ar
    14    6   37 1
    15    7    8 1
    16    8    9 1
    17    8   44 1
    18    9   17 1
    19    9   10 2
    20   10   11 1
    21   10   65 1
    22   11   16 ar
    23   11   12 ar
    24   12   13 ar
    25   12   45 1
    26   13   14 ar
    27   13   46 1
    28   14   15 ar
    29   14   47 1
    30   15   16 ar
    31   15   48 1
    32   16   17 1
    33   17   18 1
    34   18   23 ar
    35   18   19 ar
    36   19   20 ar
    37   20   21 ar
    38   20   49 1
    39   21   22 ar
    40   22   23 ar
    41   22   24 1
    42   24   25 1
    43   24   50 1
    44   25   30 ar
    45   25   26 ar
    46   26   27 ar
    47   26   51 1
    48   27   28 ar
    49   27   35 1
    50   28   29 ar
    51   28   33 1
    52   29   30 ar
    53   29   31 1
    54   30   52 1
    55   31   32 1
    56   32   53 1
    57   32   54 1
    58   32   55 1
    59   33   34 1
    60   34   56 1
    61   34   57 1
    62   34   58 1
    63   35   36 1
    64   36   59 1
    65   36   60 1
    66   36   61 1
    67   37   62 1
    68   37   63 1
    69   37   64 1
@<TRIPOS>MOLECULE
CHEMBL101253
   40    43     0     0     0
SMALL
USER_CHARGES

@<TRIPOS>ATOM
      1 C1          0.0099    1.3100   -0.6665 C.ar      1 <0>        -0.0873
      2 C2          1.1932    2.0449   -0.6736 C.ar      1 <0>        -0.1031
      3 C3          2.3989    1.4389   -0.4755 C.ar      1 <0>        -0.0878
      4 C4          2.4464    0.0575   -0.2619 C.ar      1 <0>        -0.1050
      5 C5          1.2413   -0.6922   -0.2545 C.ar      1 <0>        -0.0366
      6 C6          0.0201   -0.0377   -0.4614 C.ar      1 <0>        -0.1000
      7 C7          1.3338   -2.0791   -0.0357 C.ar      1 <0>         0.0670
      8 N1          2.5164   -2.6188    0.1508 N.ar      1 <0>        -0.2122
      9 N2          3.6082   -1.9490    0.1455 N.ar      1 <0>        -0.3148
     10 C8          3.6557   -0.6424   -0.0488 C.ar      1 <0>         0.3624
     11 N3          4.8682    0.0284   -0.0441 N.pl3     1 <0>        -0.6425
     12 C9          6.0641   -0.6900    0.0467 C.ar      1 <0>         0.1605
     13 C10         6.1747   -1.9364   -0.5565 C.ar      1 <0>        -0.1016
     14 C11         7.3572   -2.6438   -0.4652 C.ar      1 <0>        -0.0857
     15 C12         8.4313   -2.1122    0.2268 C.ar      1 <0>        -0.0509
     16 C13         8.3240   -0.8708    0.8288 C.ar      1 <0>        -0.0880
     17 C14         7.1459   -0.1562    0.7354 C.ar      1 <0>        -0.1365
     18 Cl1         9.9160   -3.0048    0.3406 Cl        1 <0>        -0.0690
     19 C15         0.0926   -2.9335   -0.0150 C.3       1 <0>        -0.0232
     20 C16        -0.1981   -3.4309   -1.4076 C.ar      1 <0>        -0.0363
     21 C17        -0.9979   -2.6976   -2.2706 C.ar      1 <0>        -0.1703
     22 C18        -1.2425   -3.1855   -3.5404 C.ar      1 <0>         0.0995
     23 N4         -0.7257   -4.3333   -3.9331 N.ar      1 <0>        -0.4856
     24 C19         0.0392   -5.0571   -3.1393 C.ar      1 <0>         0.1005
     25 C20         0.3326   -4.6300   -1.8581 C.ar      1 <0>        -0.1573
     26 H1         -0.9311    1.8168   -0.8216 H         1 <0>         0.1364
     27 H2          1.1553    3.1115   -0.8389 H         1 <0>         0.1355
     28 H3          3.3089    2.0205   -0.4838 H         1 <0>         0.1315
     29 H4         -0.9047   -0.5955   -0.4580 H         1 <0>         0.1411
     30 H5          4.8872    0.9963   -0.1038 H         1 <0>         0.4199
     31 H6          5.3365   -2.3519   -1.0962 H         1 <0>         0.1422
     32 H7          7.4438   -3.6128   -0.9340 H         1 <0>         0.1376
     33 H8          9.1638   -0.4583    1.3683 H         1 <0>         0.1380
     34 H9          7.0641    0.8146    1.2016 H         1 <0>         0.1341
     35 H10         0.2476   -3.7836    0.6494 H         1 <0>         0.1044
     36 H11        -0.7500   -2.3417    0.3426 H         1 <0>         0.0975
     37 H12        -1.4246   -1.7571   -1.9546 H         1 <0>         0.1331
     38 H13        -1.8645   -2.6203   -4.2187 H         1 <0>         0.1558
     39 H14         0.4444   -5.9925   -3.4961 H         1 <0>         0.1573
     40 H15         0.9637   -5.2248   -1.2145 H         1 <0>         0.1397
@<TRIPOS>BOND
     1    1    6 ar
     2    1    2 ar
     3    1   26 1
     4    2    3 ar
     5    2   27 1
     6    3    4 ar
     7    3   28 1
     8    4   10 ar
     9    4    5 ar
    10    5    6 ar
    11    5    7 ar
    12    6   29 1
    13    7    8 ar
    14    7   19 1
    15    8    9 ar
    16    9   10 ar
    17   10   11 1
    18   11   12 1
    19   11   30 1
    20   12   17 ar
    21   12   13 ar
    22   13   14 ar
    23   13   31 1
    24   14   15 ar
    25   14   32 1
    26   15   16 ar
    27   15   18 1
    28   16   17 ar
    29   16   33 1
    30   17   34 1
    31   19   20 1
    32   19   35 1
    33   19   36 1
    34   20   25 ar
    35   20   21 ar
    36   21   22 ar
    37   21   37 1
    38   22   23 ar
    39   22   38 1
    40   23   24 ar
    41   24   25 ar
    42   24   39 1
    43   25   40 1
@<TRIPOS>MOLECULE
CHEMBL101253__1
   41    44     0     0     0
SMALL
USER_CHARGES

@<TRIPOS>ATOM
      1 C1          0.0099    1.3100   -0.6662 C.ar      1 <0>        -0.0674
      2 C2          1.1932    2.0448   -0.6735 C.ar      1 <0>        -0.0487
      3 C3          2.3989    1.4389   -0.4755 C.ar      1 <0>        -0.0845
      4 C4          2.4463    0.0575   -0.2617 C.ar      1 <0>        -0.0739
      5 C5          1.2412   -0.6922   -0.2541 C.ar      1 <0>        -0.0601
      6 C6          0.0201   -0.0377   -0.4609 C.ar      1 <0>        -0.0664
      7 C7          1.3338   -2.0791   -0.0351 C.ar      1 <0>         0.1999
      8 N1          2.5164   -2.6187    0.1514 N.ar      1 <0>        -0.2425
      9 N2          3.6082   -1.9490    0.1459 N.ar      1 <0>        -0.3470
     10 C8          3.6557   -0.6424   -0.0486 C.ar      1 <0>         0.4462
     11 N3          4.8682    0.0284   -0.0441 N.pl3     1 <0>        -0.6032
     12 C9          6.0641   -0.6900    0.0467 C.ar      1 <0>         0.1192
     13 C10         6.1747   -1.9364   -0.5565 C.ar      1 <0>        -0.1022
     14 C11         7.3572   -2.6438   -0.4652 C.ar      1 <0>        -0.0874
     15 C12         8.4313   -2.1122    0.2268 C.ar      1 <0>        -0.0330
     16 C13         8.3240   -0.8708    0.8288 C.ar      1 <0>        -0.0845
     17 C14         7.1459   -0.1562    0.7354 C.ar      1 <0>        -0.1128
     18 Cl1         9.9160   -3.0048    0.3406 Cl        1 <0>        -0.0464
     19 C15         0.0926   -2.9335   -0.0142 C.3       1 <0>        -0.0622
     20 C16        -0.2681   -3.3300   -1.4226 C.ar      1 <0>        -0.0662
     21 C17        -1.1074   -2.5371   -2.1903 C.ar      1 <0>        -0.1635
     22 C18        -1.4160   -2.9329   -3.4780 C.ar      1 <0>         0.1153
     23 N4         -0.9227   -4.0493   -3.9770 N.ar      1 <0>        -0.4689
     24 C19        -0.1216   -4.8277   -3.2760 C.ar      1 <0>         0.1157
     25 C20         0.2360   -4.4934   -1.9836 C.ar      1 <0>        -0.1674
     26 H1         -0.9312    1.8167   -0.8213 H         1 <0>         0.1607
     27 H2          1.1553    3.1114   -0.8390 H         1 <0>         0.1596
     28 H3          3.3088    2.0205   -0.4840 H         1 <0>         0.1526
     29 H4         -0.9047   -0.5955   -0.4574 H         1 <0>         0.1607
     30 H5          4.8872    0.9963   -0.1039 H         1 <0>         0.4371
     31 H6          5.3365   -2.3519   -1.0962 H         1 <0>         0.1372
     32 H7          7.4438   -3.6128   -0.9340 H         1 <0>         0.1449
     33 H8          9.1638   -0.4583    1.3683 H         1 <0>         0.1485
     34 H9          7.0641    0.8146    1.2016 H         1 <0>         0.1430
     35 H10         0.2777   -3.8288    0.5792 H         1 <0>         0.1263
     36 H11        -0.7295   -2.3693    0.4263 H         1 <0>         0.1392
     37 H12        -1.5152   -1.6220   -1.7869 H         1 <0>         0.1407
     38 H13        -2.0691   -2.3208   -4.0824 H         1 <0>         0.1663
     39 H14         0.2627   -5.7349   -3.7185 H         1 <0>         0.1660
     40 H15         0.8965   -5.1324   -1.4163 H         1 <0>         0.1394
     41 H16         2.5657   -3.5757    0.3016 H         1 <0>         0.4699
@<TRIPOS>BOND
     1    1    6 ar
     2    1    2 ar
     3    1   26 1
     4    2    3 ar
     5    2   27 1
     6    3    4 ar
     7    3   28 1
     8    4   10 ar
     9    4    5 ar
    10    5    6 ar
    11    5    7 ar
    12    6   29 1
    13    7    8 ar
    14    7   19 1
    15    8    9 ar
    16    8   41 1
    17    9   10 ar
    18   10   11 1
    19   11   12 1
    20   11   30 1
    21   12   17 ar
    22   12   13 ar
    23   13   14 ar
    24   13   31 1
    25   14   15 ar
    26   14   32 1
    27   15   16 ar
    28   15   18 1
    29   16   17 ar
    30   16   33 1
    31   17   34 1
    32   19   20 1
    33   19   35 1
    34   19   36 1
    35   20   25 ar
    36   20   21 ar
    37   21   22 ar
    38   21   37 1
    39   22   23 ar
    40   22   38 1
    41   23   24 ar
    42   24   25 ar
    43   24   39 1
    44   25   40 1
@<TRIPOS>MOLECULE
CHEMBL272938
   45    48     0     0     0
SMALL
USER_CHARGES

@<TRIPOS>ATOM
      1 C1         -1.1905    1.0261   -0.4149 C.3       1 <0>        -0.1156
      2 C2         -1.7161   -0.2502    0.1901 C.ar      1 <0>        -0.0662
      3 C3         -2.9560   -0.7337   -0.1863 C.ar      1 <0>        -0.1347
      4 C4         -3.4416   -1.9045    0.3660 C.ar      1 <0>        -0.0950
      5 C5         -2.6891   -2.5951    1.2961 C.ar      1 <0>        -0.1252
      6 C6         -1.4440   -2.1123    1.6761 C.ar      1 <0>         0.1635
      7 C7         -0.9568   -0.9387    1.1155 C.ar      1 <0>        -0.1470
      8 N1         -0.6795   -2.8093    2.6184 N.am      1 <0>        -0.6805
      9 C8         -0.7436   -4.1543    2.6763 C.2       1 <0>         0.7037
     10 O1         -1.3916   -4.7682    1.8506 O.2       1 <0>        -0.5490
     11 N2         -0.0895   -4.8189    3.6494 N.am      1 <0>        -0.6818
     12 C9         -0.0661   -6.2169    3.6472 C.ar      1 <0>         0.1725
     13 C10        -0.0547   -6.9086    2.4417 C.ar      1 <0>        -0.1131
     14 C11        -0.0320   -8.2868    2.4365 C.ar      1 <0>        -0.0753
     15 C12        -0.0201   -8.9874    3.6428 C.ar      1 <0>        -0.0659
     16 C13        -0.0312   -8.2906    4.8513 C.ar      1 <0>        -0.0962
     17 C14        -0.0486   -6.9123    4.8505 C.ar      1 <0>        -0.1425
     18 C15         0.0037  -10.4686    3.6404 C.ar      1 <0>        -0.0066
     19 C16        -0.8951  -11.1930    2.8687 C.ar      1 <0>         0.0493
     20 N3         -0.8783  -12.5143    2.8629 N.ar      1 <0>        -0.4333
     21 C17        -0.0240  -13.2180    3.5753 C.ar      1 <0>         0.0932
     22 C18         0.9175  -12.5856    4.3818 C.ar      1 <0>         0.1004
     23 C19         0.9430  -11.1766    4.4170 C.ar      1 <0>        -0.1550
     24 C20         2.0204  -10.8052    5.3261 C.2       1 <0>         0.3647
     25 N4          2.5657  -11.9097    5.7668 N.2       1 <0>        -0.3071
     26 N5          1.9121  -13.0184    5.2176 N.pl3     1 <0>        -0.4938
     27 H1          2.1351  -13.9460    5.3928 H         1 <0>         0.4457
     28 N6          2.4022   -9.5037    5.6653 N.pl3     1 <0>        -0.8345
     29 H2         -0.6280    0.7947   -1.3194 H         1 <0>         0.0723
     30 H3         -2.0256    1.6809   -0.6638 H         1 <0>         0.0690
     31 H4         -0.5379    1.5256    0.3011 H         1 <0>         0.0665
     32 H5         -3.5463   -0.1954   -0.9131 H         1 <0>         0.1239
     33 H6         -4.4103   -2.2793    0.0702 H         1 <0>         0.1269
     34 H7         -3.0691   -3.5094    1.7275 H         1 <0>         0.1356
     35 H8          0.0131   -0.5628    1.4060 H         1 <0>         0.1247
     36 H9         -0.1034   -2.3245    3.2299 H         1 <0>         0.4088
     37 H10         0.3650   -4.3273    4.3513 H         1 <0>         0.4101
     38 H11        -0.0639   -6.3657    1.5081 H         1 <0>         0.1420
     39 H12        -0.0239   -8.8237    1.4995 H         1 <0>         0.1333
     40 H13        -0.0224   -8.8306    5.7866 H         1 <0>         0.1330
     41 H14        -0.0527   -6.3723    5.7858 H         1 <0>         0.1327
     42 H15        -1.6197  -10.6681    2.2639 H         1 <0>         0.1627
     43 H16        -0.0542  -14.2968    3.5338 H         1 <0>         0.1634
     44 H17         1.9333   -8.7455    5.2831 H         1 <0>         0.4128
     45 H18         3.1360   -9.3590    6.2830 H         1 <0>         0.4071
@<TRIPOS>BOND
     1    1    2 1
     2    1   29 1
     3    1   30 1
     4    1   31 1
     5    2    7 ar
     6    2    3 ar
     7    3    4 ar
     8    3   32 1
     9    4    5 ar
    10    4   33 1
    11    5    6 ar
    12    5   34 1
    13    6    7 ar
    14    6    8 1
    15    7   35 1
    16    8    9 am
    17    8   36 1
    18    9   10 2
    19    9   11 am
    20   11   12 1
    21   11   37 1
    22   12   17 ar
    23   12   13 ar
    24   13   14 ar
    25   13   38 1
    26   14   15 ar
    27   14   39 1
    28   15   16 ar
    29   15   18 1
    30   16   17 ar
    31   16   40 1
    32   17   41 1
    33   18   23 ar
    34   18   19 ar
    35   19   20 ar
    36   19   42 1
    37   20   21 ar
    38   21   22 ar
    39   21   43 1
    40   22   26 1
    41   22   23 ar
    42   23   24 1
    43   24   25 2
    44   24   28 1
    45   25   26 1
    46   26   27 1
    47   28   44 1
    48   28   45 1
@<TRIPOS>MOLECULE
CHEMBL272938__1
   45    48     0     0     0
SMALL
USER_CHARGES

@<TRIPOS>ATOM
      1 C1         -1.1916    1.0262   -0.4144 C.3       1 <0>        -0.1155
      2 C2         -1.7170   -0.2501    0.1906 C.ar      1 <0>        -0.0662
      3 C3         -2.9569   -0.7337   -0.1857 C.ar      1 <0>        -0.1346
      4 C4         -3.4423   -1.9046    0.3667 C.ar      1 <0>        -0.0948
      5 C5         -2.6896   -2.5952    1.2966 C.ar      1 <0>        -0.1252
      6 C6         -1.4445   -2.1123    1.6764 C.ar      1 <0>         0.1633
      7 C7         -0.9575   -0.9386    1.1158 C.ar      1 <0>        -0.1471
      8 N1         -0.6797   -2.8093    2.6185 N.am      1 <0>        -0.6806
      9 C8         -0.7438   -4.1543    2.6764 C.2       1 <0>         0.7034
     10 O1         -1.3920   -4.7682    1.8509 O.2       1 <0>        -0.5485
     11 N2         -0.0895   -4.8189    3.6494 N.am      1 <0>        -0.6820
     12 C9         -0.0661   -6.2167    3.6472 C.ar      1 <0>         0.1690
     13 C10        -0.0547   -6.9084    2.4415 C.ar      1 <0>        -0.1118
     14 C11        -0.0320   -8.2864    2.4362 C.ar      1 <0>        -0.0772
     15 C12        -0.0201   -8.9873    3.6428 C.ar      1 <0>        -0.0593
     16 C13        -0.0312   -8.2902    4.8517 C.ar      1 <0>        -0.1022
     17 C14        -0.0486   -6.9121    4.8507 C.ar      1 <0>        -0.1426
     18 C15         0.0037  -10.4676    3.6404 C.ar      1 <0>         0.0064
     19 C16        -0.8882  -11.1964    2.8743 C.ar      1 <0>         0.0213
     20 N3         -0.8825  -12.5209    2.8590 N.ar      1 <0>        -0.4454
     21 C17        -0.0563  -13.2660    3.5465 C.ar      1 <0>         0.1574
     22 C18         0.9191  -12.6814    4.3804 C.ar      1 <0>         0.0828
     23 C19         0.9750  -11.2099    4.4433 C.ar      1 <0>        -0.2460
     24 C20         2.0042  -10.8907    5.3118 C.2       1 <0>         0.4040
     25 N4          2.5439  -12.0439    5.7467 N.pl3     1 <0>        -0.4582
     26 N5          1.8692  -13.1307    5.1773 N.2       1 <0>        -0.2893
     27 H1          3.2860  -12.1123    6.3676 H         1 <0>         0.4422
     28 N6          2.4069   -9.6121    5.6694 N.pl3     1 <0>        -0.8423
     29 H2         -0.6293    0.7949   -1.3190 H         1 <0>         0.0724
     30 H3         -2.0267    1.6810   -0.6632 H         1 <0>         0.0690
     31 H4         -0.5389    1.5258    0.3014 H         1 <0>         0.0664
     32 H5         -3.5474   -0.1954   -0.9123 H         1 <0>         0.1240
     33 H6         -4.4110   -2.2794    0.0711 H         1 <0>         0.1271
     34 H7         -3.0695   -3.5095    1.7280 H         1 <0>         0.1357
     35 H8          0.0125   -0.5627    1.4061 H         1 <0>         0.1246
     36 H9         -0.1035   -2.3245    3.2299 H         1 <0>         0.4086
     37 H10         0.3651   -4.3273    4.3512 H         1 <0>         0.4094
     38 H11        -0.0639   -6.3654    1.5079 H         1 <0>         0.1415
     39 H12        -0.0239   -8.8232    1.4991 H         1 <0>         0.1336
     40 H13        -0.0224   -8.8300    5.7870 H         1 <0>         0.1305
     41 H14        -0.0527   -6.3720    5.7860 H         1 <0>         0.1309
     42 H15        -1.6118  -10.6691    2.2703 H         1 <0>         0.1536
     43 H16        -0.1220  -14.3417    3.4750 H         1 <0>         0.1662
     44 H17         1.9520   -8.8392    5.2998 H         1 <0>         0.4212
     45 H18         3.1432   -9.4911    6.2891 H         1 <0>         0.4043
@<TRIPOS>BOND
     1    1    2 1
     2    1   29 1
     3    1   30 1
     4    1   31 1
     5    2    7 ar
     6    2    3 ar
     7    3    4 ar
     8    3   32 1
     9    4    5 ar
    10    4   33 1
    11    5    6 ar
    12    5   34 1
    13    6    7 ar
    14    6    8 1
    15    7   35 1
    16    8    9 am
    17    8   36 1
    18    9   10 2
    19    9   11 am
    20   11   12 1
    21   11   37 1
    22   12   17 ar
    23   12   13 ar
    24   13   14 ar
    25   13   38 1
    26   14   15 ar
    27   14   39 1
    28   15   16 ar
    29   15   18 1
    30   16   17 ar
    31   16   40 1
    32   17   41 1
    33   18   23 ar
    34   18   19 ar
    35   19   20 ar
    36   19   42 1
    37   20   21 ar
    38   21   22 ar
    39   21   43 1
    40   22   23 ar
    41   22   26 2
    42   23   24 2
    43   24   28 1
    44   24   25 1
    45   25   27 1
    46   25   26 1
    47   28   44 1
    48   28   45 1
@<TRIPOS>MOLECULE
CHEMBL1202478
   56    59     0     0     0
SMALL
USER_CHARGES

@<TRIPOS>ATOM
      1 C1         -0.0247    1.4791    0.3251 C.3       1 <0>         0.0197
      2 O1         -0.0088    0.0910    0.6644 O.3       1 <0>        -0.3027
      3 C2         -1.2119   -0.5364    0.7539 C.ar      1 <0>         0.1110
      4 C3         -2.3593    0.1658    0.5164 C.ar      1 <0>        -0.1421
      5 C4         -3.5983   -0.4793    0.6078 C.ar      1 <0>        -0.1778
      6 C5         -3.6558   -1.8542    0.9456 C.ar      1 <0>         0.2019
      7 C6         -2.4672   -2.5545    1.1849 C.ar      1 <0>        -0.1788
      8 C7         -1.2606   -1.8981    1.0833 C.ar      1 <0>         0.1610
      9 O2         -0.1055   -2.5763    1.3100 O.3       1 <0>        -0.2926
     10 C8         -0.2209   -3.9615    1.6415 C.3       1 <0>         0.0689
     11 C9          1.1528   -4.5427    1.8562 C.2       1 <0>        -0.0652
     12 C10         1.3813   -5.3210    2.8849 C.2       1 <0>        -0.2239
     13 C11         2.7550   -5.9023    3.0996 C.3       1 <0>         0.0384
     14 N1          3.2292   -5.5541    4.4456 N.4       1 <0>        -0.3931
     15 C12         2.4279   -6.2689    5.4718 C.3       1 <0>        -0.0064
     16 C13         3.3558   -6.2645    6.7126 C.3       1 <0>        -0.1463
     17 C14         4.7589   -6.4665    6.0956 C.3       1 <0>        -0.1454
     18 C15         4.6229   -6.0136    4.6301 C.3       1 <0>        -0.0090
     19 N2         -4.8565   -2.4488    1.0262 N.ar      1 <0>        -0.5409
     20 C16        -5.9531   -1.7668    0.7960 C.ar      1 <0>         0.3478
     21 N3         -5.9483   -0.4822    0.4773 N.ar      1 <0>        -0.5767
     22 C17        -4.8163    0.2016    0.3712 C.ar      1 <0>         0.4667
     23 N4         -4.8262    1.5412    0.0390 N.pl3     1 <0>        -0.6296
     24 C18        -6.0412    2.2292   -0.0575 C.ar      1 <0>         0.1377
     25 C19        -7.1827    1.7124    0.5402 C.ar      1 <0>        -0.1040
     26 C20        -8.3805    2.3937    0.4439 C.ar      1 <0>        -0.0733
     27 C21        -8.4446    3.5905   -0.2473 C.ar      1 <0>        -0.0858
     28 C22        -7.3096    4.1095   -0.8445 C.ar      1 <0>        -0.1007
     29 C23        -6.1062    3.4351   -0.7474 C.ar      1 <0>         0.0687
     30 F1         -4.9966    3.9444   -1.3257 F         1 <0>        -0.1329
     31 Br1       -10.0871    4.5187   -0.3765 Br        1 <0>        -0.0296
     32 H1          0.9975    1.8556    0.2872 H         1 <0>         0.1094
     33 H2         -0.4964    1.6097   -0.6488 H         1 <0>         0.0604
     34 H3         -0.5874    2.0307    1.0782 H         1 <0>         0.0596
     35 H4         -2.3108    1.2137    0.2596 H         1 <0>         0.1420
     36 H5         -2.4961   -3.6027    1.4432 H         1 <0>         0.1548
     37 H6         -0.8076   -4.0690    2.5539 H         1 <0>         0.0823
     38 H7         -0.7158   -4.4901    0.8269 H         1 <0>         0.0937
     39 H8          1.9489   -4.3177    1.1620 H         1 <0>         0.1359
     40 H9          0.5852   -5.5461    3.5791 H         1 <0>         0.1377
     41 H10         2.7104   -6.9868    2.9993 H         1 <0>         0.1365
     42 H11         3.4414   -5.4967    2.3563 H         1 <0>         0.1319
     43 H12         1.5031   -5.7312    5.6811 H         1 <0>         0.1343
     44 H13         2.2169   -7.2896    5.1528 H         1 <0>         0.1340
     45 H14         3.2977   -5.3093    7.2343 H         1 <0>         0.0978
     46 H15         3.1072   -7.0872    7.3830 H         1 <0>         0.1166
     47 H16         5.4929   -5.8506    6.6153 H         1 <0>         0.1051
     48 H17         5.0448   -7.5173    6.1419 H         1 <0>         0.1039
     49 H18         4.8296   -6.8499    3.9623 H         1 <0>         0.1310
     50 H19         5.3136   -5.1947    4.4289 H         1 <0>         0.1323
     51 H20        -6.9025   -2.2764    0.8695 H         1 <0>         0.2038
     52 H21        -3.9912    2.0057   -0.1276 H         1 <0>         0.4242
     53 H22        -7.1344    0.7781    1.0797 H         1 <0>         0.1818
     54 H23        -9.2685    1.9912    0.9086 H         1 <0>         0.1462
     55 H24        -7.3626    5.0438   -1.3837 H         1 <0>         0.1515
     56 H25         3.1698   -4.5570    4.5888 H         1 <0>         0.4283
@<TRIPOS>BOND
     1    1    2 1
     2    1   32 1
     3    1   33 1
     4    1   34 1
     5    2    3 1
     6    3    8 ar
     7    3    4 ar
     8    4    5 ar
     9    4   35 1
    10    5   22 ar
    11    5    6 ar
    12    6    7 ar
    13    6   19 ar
    14    7    8 ar
    15    7   36 1
    16    8    9 1
    17    9   10 1
    18   10   11 1
    19   10   37 1
    20   10   38 1
    21   11   12 2
    22   11   39 1
    23   12   13 1
    24   12   40 1
    25   13   14 1
    26   13   41 1
    27   13   42 1
    28   14   18 1
    29   14   15 1
    30   14   56 1
    31   15   16 1
    32   15   43 1
    33   15   44 1
    34   16   17 1
    35   16   45 1
    36   16   46 1
    37   17   18 1
    38   17   47 1
    39   17   48 1
    40   18   49 1
    41   18   50 1
    42   19   20 ar
    43   20   21 ar
    44   20   51 1
    45   21   22 ar
    46   22   23 1
    47   23   24 1
    48   23   52 1
    49   24   29 ar
    50   24   25 ar
    51   25   26 ar
    52   25   53 1
    53   26   27 ar
    54   26   54 1
    55   27   28 ar
    56   27   31 1
    57   28   29 ar
    58   28   55 1
    59   29   30 1
@<TRIPOS>MOLECULE
CHEMBL1202477
   60    63     0     0     0
SMALL
USER_CHARGES

@<TRIPOS>ATOM
      1 C1          3.1623    1.0561   -0.6761 C.3       1 <0>        -0.0458
      2 N1          2.9728   -0.3995   -0.6191 N.4       1 <0>        -0.3887
      3 C2          1.5614   -0.7194   -0.8707 C.3       1 <0>        -0.0025
      4 C3          1.3670   -2.2368   -0.8300 C.3       1 <0>         0.0253
      5 N2          1.7751   -2.7449    0.4873 N.3       1 <0>        -0.5383
      6 C4          3.1793   -2.4103    0.7637 C.3       1 <0>         0.0187
      7 C5          3.3587   -0.8916    0.7100 C.3       1 <0>        -0.0026
      8 C6          1.5498   -4.1932    0.5857 C.3       1 <0>         0.0579
      9 C7          1.7469   -4.6427    2.0349 C.3       1 <0>        -0.1174
     10 C8          1.5122   -6.1511    2.1374 C.3       1 <0>         0.0532
     11 O1          1.6963   -6.5709    3.4909 O.3       1 <0>        -0.2942
     12 C9          1.5237   -7.8921    3.7557 C.ar      1 <0>         0.1654
     13 C10         1.1921   -8.7541    2.7339 C.ar      1 <0>        -0.1817
     14 C11         1.0149  -10.1153    3.0097 C.ar      1 <0>         0.2021
     15 C12         1.1796  -10.5844    4.3366 C.ar      1 <0>        -0.1789
     16 C13         1.5168   -9.6874    5.3572 C.ar      1 <0>        -0.1452
     17 C14         1.6906   -8.3644    5.0649 C.ar      1 <0>         0.1116
     18 O2          2.0239   -7.4949    6.0560 O.3       1 <0>        -0.3012
     19 C15         2.1798   -8.0368    7.3691 C.3       1 <0>         0.0200
     20 C16         0.9944  -11.9654    4.5844 C.ar      1 <0>         0.4658
     21 N3          0.6763  -12.7492    3.5624 N.ar      1 <0>        -0.5779
     22 C17         0.5329  -12.2659    2.3386 C.ar      1 <0>         0.3450
     23 N4          0.6920  -10.9963    2.0498 N.ar      1 <0>        -0.5405
     24 N5          1.1412  -12.4831    5.8554 N.pl3     1 <0>        -0.6305
     25 C18         1.0886  -13.8670    6.0577 C.ar      1 <0>         0.1398
     26 C19         1.2806  -14.7339    4.9904 C.ar      1 <0>        -0.1046
     27 C20         1.2281  -16.0993    5.1927 C.ar      1 <0>        -0.0733
     28 C21         0.9845  -16.6047    6.4575 C.ar      1 <0>        -0.0868
     29 C22         0.7926  -15.7447    7.5242 C.ar      1 <0>        -0.1007
     30 C23         0.8495  -14.3768    7.3294 C.ar      1 <0>         0.0677
     31 F1          0.6677  -13.5368    8.3719 F         1 <0>        -0.1331
     32 Br1         0.9131  -18.4748    6.7286 Br        1 <0>        -0.0310
     33 H1          4.2098    1.2936   -0.4908 H         1 <0>         0.1244
     34 H2          2.8759    1.4214   -1.6623 H         1 <0>         0.1245
     35 H3          2.5418    1.5332    0.0824 H         1 <0>         0.1234
     36 H4          0.9412   -0.2531   -0.1053 H         1 <0>         0.1382
     37 H5          1.2727   -0.3423   -1.8518 H         1 <0>         0.1366
     38 H6          0.3170   -2.4736   -1.0019 H         1 <0>         0.1249
     39 H7          1.9767   -2.7024   -1.6043 H         1 <0>         0.0619
     40 H8          3.4515   -2.7739    1.7546 H         1 <0>         0.1267
     41 H9          3.8189   -2.8788    0.0157 H         1 <0>         0.0623
     42 H10         4.4025   -0.6421    0.9007 H         1 <0>         0.1363
     43 H11         2.7293   -0.4243    1.4673 H         1 <0>         0.1383
     44 H12         0.5332   -4.4252    0.2684 H         1 <0>         0.0942
     45 H13         2.2590   -4.7157   -0.0564 H         1 <0>         0.0522
     46 H14         2.7635   -4.4107    2.3522 H         1 <0>         0.0767
     47 H15         1.0377   -4.1202    2.6769 H         1 <0>         0.0903
     48 H16         0.4956   -6.3831    1.8201 H         1 <0>         0.0722
     49 H17         2.2214   -6.6736    1.4953 H         1 <0>         0.0688
     50 H18         1.0694   -8.3827    1.7272 H         1 <0>         0.1543
     51 H19         1.6430  -10.0405    6.3701 H         1 <0>         0.1409
     52 H20         1.2438   -8.4969    7.6857 H         1 <0>         0.0595
     53 H21         2.9694   -8.7881    7.3607 H         1 <0>         0.0590
     54 H22         2.4450   -7.2386    8.0624 H         1 <0>         0.1089
     55 H23         0.2736  -12.9475    1.5420 H         1 <0>         0.2026
     56 H24         1.2809  -11.8878    6.6084 H         1 <0>         0.4241
     57 H25         1.4705  -14.3409    4.0025 H         1 <0>         0.1820
     58 H26         1.3771  -16.7735    4.3622 H         1 <0>         0.1458
     59 H27         0.6022  -16.1420    8.5102 H         1 <0>         0.1511
     60 H28         3.5476   -0.8411   -1.3210 H         1 <0>         0.4225
@<TRIPOS>BOND
     1    1    2 1
     2    1   33 1
     3    1   34 1
     4    1   35 1
     5    2    7 1
     6    2    3 1
     7    2   60 1
     8    3    4 1
     9    3   36 1
    10    3   37 1
    11    4    5 1
    12    4   38 1
    13    4   39 1
    14    5    6 1
    15    5    8 1
    16    6    7 1
    17    6   40 1
    18    6   41 1
    19    7   42 1
    20    7   43 1
    21    8    9 1
    22    8   44 1
    23    8   45 1
    24    9   10 1
    25    9   46 1
    26    9   47 1
    27   10   11 1
    28   10   48 1
    29   10   49 1
    30   11   12 1
    31   12   17 ar
    32   12   13 ar
    33   13   14 ar
    34   13   50 1
    35   14   23 ar
    36   14   15 ar
    37   15   16 ar
    38   15   20 ar
    39   16   17 ar
    40   16   51 1
    41   17   18 1
    42   18   19 1
    43   19   52 1
    44   19   53 1
    45   19   54 1
    46   20   21 ar
    47   20   24 1
    48   21   22 ar
    49   22   23 ar
    50   22   55 1
    51   24   25 1
    52   24   56 1
    53   25   30 ar
    54   25   26 ar
    55   26   27 ar
    56   26   57 1
    57   27   28 ar
    58   27   58 1
    59   28   29 ar
    60   28   32 1
    61   29   30 ar
    62   29   59 1
    63   30   31 1
@<TRIPOS>MOLECULE
CHEMBL1202477__1
   60    63     0     0     0
SMALL
USER_CHARGES

@<TRIPOS>ATOM
      1 C1          3.1731    1.1918   -0.7385 C.3       1 <0>         0.0193
      2 N1          2.9676   -0.2619   -0.6884 N.3       1 <0>        -0.5439
      3 C2          1.5769   -0.6089   -1.0133 C.3       1 <0>         0.0239
      4 C3          1.4196   -2.1310   -1.0085 C.3       1 <0>        -0.0019
      5 N2          1.7767   -2.6562    0.3159 N.4       1 <0>        -0.3853
      6 C4          3.1755   -2.3231    0.6158 C.3       1 <0>        -0.0084
      7 C5          3.3474   -0.8026    0.6245 C.3       1 <0>         0.0246
      8 C6          1.6082   -4.1154    0.3255 C.3       1 <0>        -0.0051
      9 C7          1.8593   -4.6486    1.7374 C.3       1 <0>        -0.1500
     10 C8          1.6839   -6.1685    1.7474 C.3       1 <0>         0.0565
     11 O1          1.9184   -6.6664    3.0661 O.3       1 <0>        -0.2939
     12 C9          1.8022   -8.0076    3.2487 C.ar      1 <0>         0.1614
     13 C10         1.4766   -8.8148    2.1811 C.ar      1 <0>        -0.1784
     14 C11         1.3575  -10.1966    2.3722 C.ar      1 <0>         0.2014
     15 C12         1.5739  -10.7428    3.6616 C.ar      1 <0>        -0.1777
     16 C13         1.9037   -9.9005    4.7301 C.ar      1 <0>        -0.1415
     17 C14         2.0204   -8.5557    4.5202 C.ar      1 <0>         0.1107
     18 O2          2.3466   -7.7391    5.5575 O.3       1 <0>        -0.3026
     19 C15         2.5565   -8.3573    6.8286 C.3       1 <0>         0.0196
     20 C16         1.4468  -12.1430    3.8236 C.ar      1 <0>         0.4672
     21 N3          1.1319  -12.8717    2.7606 N.ar      1 <0>        -0.5766
     22 C17         0.9388  -12.3171    1.5745 C.ar      1 <0>         0.3484
     23 N4          1.0429  -11.0264    1.3650 N.ar      1 <0>        -0.5419
     24 N5          1.6457  -12.7348    5.0545 N.pl3     1 <0>        -0.6293
     25 C18         1.6500  -14.1298    5.1679 C.ar      1 <0>         0.1370
     26 C19         1.8465  -14.9185    4.0424 C.ar      1 <0>        -0.1037
     27 C20         1.8502  -16.2951    4.1568 C.ar      1 <0>        -0.0734
     28 C21         1.6585  -16.8894    5.3915 C.ar      1 <0>        -0.0854
     29 C22         1.4623  -16.1074    6.5159 C.ar      1 <0>        -0.1008
     30 C23         1.4631  -14.7287    6.4091 C.ar      1 <0>         0.0691
     31 F1          1.2771  -13.9648    7.5077 F         1 <0>        -0.1329
     32 Br1         1.6639  -18.7744    5.5424 Br        1 <0>        -0.0292
     33 H1          4.2244    1.4166   -0.5588 H         1 <0>         0.0847
     34 H2          2.8843    1.5658   -1.7208 H         1 <0>         0.0843
     35 H3          2.5629    1.6715    0.0268 H         1 <0>         0.0399
     36 H4          0.9099   -0.1720   -0.2701 H         1 <0>         0.0609
     37 H5          1.3263   -0.2204   -2.0004 H         1 <0>         0.1249
     38 H6          0.3854   -2.3901   -1.2354 H         1 <0>         0.1374
     39 H7          2.0767   -2.5665   -1.7613 H         1 <0>         0.1393
     40 H8          3.4431   -2.7246    1.5932 H         1 <0>         0.1379
     41 H9          3.8236   -2.7576   -0.1453 H         1 <0>         0.1396
     42 H10         4.3885   -0.5554    0.8323 H         1 <0>         0.1244
     43 H11         2.7096   -0.3689    1.3947 H         1 <0>         0.0611
     44 H12         0.5930   -4.3660    0.0177 H         1 <0>         0.1371
     45 H13         2.3195   -4.5678   -0.3656 H         1 <0>         0.1365
     46 H14         2.8745   -4.3980    2.0452 H         1 <0>         0.1007
     47 H15         1.1480   -4.1962    2.4285 H         1 <0>         0.1003
     48 H16         0.6687   -6.4190    1.4396 H         1 <0>         0.0788
     49 H17         2.3951   -6.6209    1.0563 H         1 <0>         0.0790
     50 H18         1.3141   -8.3848    1.2038 H         1 <0>         0.1541
     51 H19         2.0691  -10.3124    5.7146 H         1 <0>         0.1422
     52 H20         1.6468   -8.8728    7.1366 H         1 <0>         0.0602
     53 H21         3.3731   -9.0752    6.7531 H         1 <0>         0.0602
     54 H22         2.8096   -7.5953    7.5658 H         1 <0>         0.1099
     55 H23         0.6846  -12.9560    0.7416 H         1 <0>         0.2038
     56 H24         1.7825  -12.1839    5.8411 H         1 <0>         0.4243
     57 H25         1.9959  -14.4561    3.0779 H         1 <0>         0.1817
     58 H26         2.0027  -16.9086    3.2811 H         1 <0>         0.1463
     59 H27         1.3125  -16.5741    7.4784 H         1 <0>         0.1517
     60 H28         1.1759   -2.2441    1.0141 H         1 <0>         0.4219
@<TRIPOS>BOND
     1    1    2 1
     2    1   33 1
     3    1   34 1
     4    1   35 1
     5    2    7 1
     6    2    3 1
     7    3    4 1
     8    3   36 1
     9    3   37 1
    10    4    5 1
    11    4   38 1
    12    4   39 1
    13    5    6 1
    14    5    8 1
    15    5   60 1
    16    6    7 1
    17    6   40 1
    18    6   41 1
    19    7   42 1
    20    7   43 1
    21    8    9 1
    22    8   44 1
    23    8   45 1
    24    9   10 1
    25    9   46 1
    26    9   47 1
    27   10   11 1
    28   10   48 1
    29   10   49 1
    30   11   12 1
    31   12   17 ar
    32   12   13 ar
    33   13   14 ar
    34   13   50 1
    35   14   23 ar
    36   14   15 ar
    37   15   16 ar
    38   15   20 ar
    39   16   17 ar
    40   16   51 1
    41   17   18 1
    42   18   19 1
    43   19   52 1
    44   19   53 1
    45   19   54 1
    46   20   21 ar
    47   20   24 1
    48   21   22 ar
    49   22   23 ar
    50   22   55 1
    51   24   25 1
    52   24   56 1
    53   25   30 ar
    54   25   26 ar
    55   26   27 ar
    56   26   57 1
    57   27   28 ar
    58   27   58 1
    59   28   29 ar
    60   28   32 1
    61   29   30 ar
    62   29   59 1
    63   30   31 1
@<TRIPOS>MOLECULE
CHEMBL177688
   43    45     0     0     0
SMALL
USER_CHARGES

@<TRIPOS>ATOM
      1 C1          4.5209    5.4257    1.2950 C.ar      1 <0>        -0.0843
      2 C2          4.5299    4.0650    1.0576 C.ar      1 <0>        -0.1128
      3 C3          3.5755    3.5006    0.2210 C.ar      1 <0>         0.1737
      4 C4          2.6140    4.3072   -0.3746 C.ar      1 <0>        -0.1423
      5 C5          2.6102    5.6678   -0.1332 C.ar      1 <0>        -0.0132
      6 C6          3.5631    6.2265    0.7012 C.ar      1 <0>        -0.1265
      7 Cl1         1.4098    6.6774   -0.8772 Cl        1 <0>        -0.0657
      8 N1          3.5826    2.1242   -0.0212 N.pl3     1 <0>        -0.6535
      9 C7          4.7906    1.4456   -0.1414 C.ar      1 <0>         0.3528
     10 C8          4.8018    0.0568   -0.2593 C.ar      1 <0>         0.0070
     11 N2          5.9473   -0.5889   -0.3730 N.ar      1 <0>        -0.3965
     12 C9          7.0880    0.0775   -0.3760 C.ar      1 <0>         0.0072
     13 C10         7.0855    1.4655   -0.2591 C.ar      1 <0>         0.1755
     14 N3          5.9321    2.1194   -0.1494 N.ar      1 <0>        -0.4789
     15 C11         8.3664    2.2137   -0.2619 C.ar      1 <0>        -0.0556
     16 C12         9.5821    1.5374   -0.3872 C.ar      1 <0>        -0.1316
     17 C13        10.7545    2.2852   -0.3842 C.ar      1 <0>         0.1666
     18 C14        10.6754    3.6673   -0.2578 C.ar      1 <0>         0.0431
     19 N4          9.5095    4.2714   -0.1416 N.ar      1 <0>        -0.4448
     20 C15         8.3747    3.6024   -0.1455 C.ar      1 <0>         0.0846
     21 N5         11.9959    1.6556   -0.5063 N.pl3     1 <0>        -0.7396
     22 C16        13.2251    2.4527   -0.5020 C.3       1 <0>         0.1245
     23 C17        14.4341    1.5264   -0.6484 C.3       1 <0>        -0.1332
     24 C18        15.7178    2.3589   -0.6439 C.3       1 <0>         0.0788
     25 O1         16.8470    1.4938   -0.7807 O.3       1 <0>        -0.5748
     26 H1          5.2602    5.8640    1.9490 H         1 <0>         0.1366
     27 H2          5.2788    3.4404    1.5218 H         1 <0>         0.1340
     28 H3          1.8708    3.8715   -1.0259 H         1 <0>         0.1349
     29 H4          3.5582    7.2900    0.8888 H         1 <0>         0.1348
     30 H5          2.7451    1.6422   -0.1056 H         1 <0>         0.4246
     31 H6          3.8715   -0.4919   -0.2573 H         1 <0>         0.1703
     32 H7          8.0234   -0.4543   -0.4689 H         1 <0>         0.1694
     33 H8          9.6109    0.4621   -0.4834 H         1 <0>         0.1391
     34 H9         11.5819    4.2544   -0.2543 H         1 <0>         0.1548
     35 H10         7.4402    4.1359   -0.0530 H         1 <0>         0.1635
     36 H11        12.0439    0.6907   -0.5938 H         1 <0>         0.4037
     37 H12        13.2043    3.1571   -1.3335 H         1 <0>         0.0662
     38 H13        13.2992    3.0011    0.4370 H         1 <0>         0.0663
     39 H14        14.4549    0.8220    0.1831 H         1 <0>         0.0781
     40 H15        14.3600    0.9780   -1.5874 H         1 <0>         0.0780
     41 H16        15.6970    3.0633   -1.4755 H         1 <0>         0.0502
     42 H17        15.7919    2.9074    0.2951 H         1 <0>         0.0502
     43 H18        17.6971    1.9546   -0.7857 H         1 <0>         0.3850
@<TRIPOS>BOND
     1    1    6 ar
     2    1    2 ar
     3    1   26 1
     4    2    3 ar
     5    2   27 1
     6    3    4 ar
     7    3    8 1
     8    4    5 ar
     9    4   28 1
    10    5    6 ar
    11    5    7 1
    12    6   29 1
    13    8    9 1
    14    8   30 1
    15    9   14 ar
    16    9   10 ar
    17   10   11 ar
    18   10   31 1
    19   11   12 ar
    20   12   13 ar
    21   12   32 1
    22   13   14 ar
    23   13   15 1
    24   15   20 ar
    25   15   16 ar
    26   16   17 ar
    27   16   33 1
    28   17   18 ar
    29   17   21 1
    30   18   19 ar
    31   18   34 1
    32   19   20 ar
    33   20   35 1
    34   21   22 1
    35   21   36 1
    36   22   23 1
    37   22   37 1
    38   22   38 1
    39   23   24 1
    40   23   39 1
    41   23   40 1
    42   24   25 1
    43   24   41 1
    44   24   42 1
    45   25   43 1
@<TRIPOS>MOLECULE
CHEMBL205108
   45    49     0     0     0
SMALL
USER_CHARGES

@<TRIPOS>ATOM
      1 C1         -0.1594    2.0579    0.1487 C.ar      1 <0>        -0.1705
      2 C2          1.1079    2.5988    0.0952 C.ar      1 <0>        -0.0587
      3 C3          2.2166    1.7656    0.0813 C.ar      1 <0>        -0.0018
      4 C4          2.0494    0.3701    0.1218 C.ar      1 <0>         0.1127
      5 C5          0.7600   -0.1678    0.1755 C.ar      1 <0>        -0.1698
      6 C6         -0.3348    0.6764    0.1891 C.ar      1 <0>         0.2166
      7 N1         -1.6262    0.1404    0.2433 N.pl3     1 <0>        -0.6339
      8 C7         -1.8474   -1.3122    0.1627 C.3       1 <0>         0.0872
      9 C8         -2.7539   -1.7285    1.3267 C.3       1 <0>         0.0454
     10 O1         -3.9241   -0.9073    1.3290 O.3       1 <0>        -0.3798
     11 C9         -3.6631    0.4829    1.5363 C.3       1 <0>         0.0453
     12 C10        -2.8027    1.0121    0.3887 C.3       1 <0>         0.0885
     13 N2          3.2867   -0.1838    0.0968 N.2       1 <0>        -0.5406
     14 C11         4.1943    0.7640    0.0443 C.2       1 <0>         0.3905
     15 N3          3.5829    1.9898    0.0326 N.pl3     1 <0>        -0.5794
     16 H1          4.0238    2.8530   -0.0037 H         1 <0>         0.4333
     17 C12         5.6498    0.5425    0.0050 C.2       1 <0>        -0.2827
     18 C13         6.1602   -0.7522   -0.1036 C.2       1 <0>         0.3600
     19 C14         7.6183   -0.9158   -0.1390 C.ar      1 <0>        -0.1076
     20 C15         8.2197   -2.1734   -0.2467 C.ar      1 <0>        -0.1008
     21 C16         9.5965   -2.2442   -0.2739 C.ar      1 <0>         0.0658
     22 N4         10.3390   -1.1539   -0.2004 N.ar      1 <0>        -0.4338
     23 C17         9.8209    0.0518   -0.0981 C.ar      1 <0>         0.0799
     24 C18         8.4402    0.2233   -0.0630 C.ar      1 <0>         0.1594
     25 N5          7.8732    1.4758    0.0442 N.am      1 <0>        -0.6294
     26 C19         6.5399    1.6425    0.0714 C.2       1 <0>         0.5780
     27 O2          6.0848    2.7693    0.1615 O.2       1 <0>        -0.5529
     28 N6          5.3237   -1.8394   -0.1749 N.pl3     1 <0>        -0.7979
     29 H2         -1.0208    2.7091    0.1639 H         1 <0>         0.1307
     30 H3          1.2371    3.6706    0.0637 H         1 <0>         0.1248
     31 H4          0.6198   -1.2382    0.2067 H         1 <0>         0.1273
     32 H5         -2.3288   -1.5583   -0.7837 H         1 <0>         0.0702
     33 H6         -0.8929   -1.8335    0.2361 H         1 <0>         0.0935
     34 H7         -3.0423   -2.7729    1.2080 H         1 <0>         0.1043
     35 H8         -2.2189   -1.6025    2.2680 H         1 <0>         0.0558
     36 H9         -4.6056    1.0295    1.5684 H         1 <0>         0.1049
     37 H10        -3.1314    0.6170    2.4783 H         1 <0>         0.0553
     38 H11        -2.4806    2.0293    0.6117 H         1 <0>         0.0921
     39 H12        -3.3820    1.0040   -0.5346 H         1 <0>         0.0700
     40 H13         7.6194   -3.0692   -0.3068 H         1 <0>         0.1473
     41 H14        10.0765   -3.2081   -0.3564 H         1 <0>         0.1689
     42 H15        10.4707    0.9125   -0.0411 H         1 <0>         0.1728
     43 H16         4.3641   -1.7101   -0.2322 H         1 <0>         0.4344
     44 H17         5.6926   -2.7365   -0.1679 H         1 <0>         0.4023
     45 H18         8.4496    2.2543    0.0959 H         1 <0>         0.4222
@<TRIPOS>BOND
     1    1    6 ar
     2    1    2 ar
     3    1   29 1
     4    2    3 ar
     5    2   30 1
     6    3   15 1
     7    3    4 ar
     8    4    5 ar
     9    4   13 1
    10    5    6 ar
    11    5   31 1
    12    6    7 1
    13    7   12 1
    14    7    8 1
    15    8    9 1
    16    8   32 1
    17    8   33 1
    18    9   10 1
    19    9   34 1
    20    9   35 1
    21   10   11 1
    22   11   12 1
    23   11   36 1
    24   11   37 1
    25   12   38 1
    26   12   39 1
    27   13   14 2
    28   14   15 1
    29   14   17 1
    30   15   16 1
    31   17   26 1
    32   17   18 2
    33   18   19 1
    34   18   28 1
    35   19   24 ar
    36   19   20 ar
    37   20   21 ar
    38   20   40 1
    39   21   22 ar
    40   21   41 1
    41   22   23 ar
    42   23   24 ar
    43   23   42 1
    44   24   25 1
    45   25   26 am
    46   25   45 1
    47   26   27 2
    48   28   43 1
    49   28   44 1
@<TRIPOS>MOLECULE
CHEMBL205893
   50    54     0     0     0
SMALL
USER_CHARGES

@<TRIPOS>ATOM
      1 C1         -0.0535    1.5101    0.0601 C.3       1 <0>        -0.0469
      2 N1         -0.0301    0.0414    0.0494 N.4       1 <0>        -0.3837
      3 C2         -1.4072   -0.4682    0.0478 C.3       1 <0>        -0.0238
      4 C3         -1.3856   -1.9951   -0.0789 C.3       1 <0>         0.1006
      5 N2         -0.5378   -2.5400    0.9927 N.pl3     1 <0>        -0.6428
      6 C4          0.8063   -1.9694    1.1712 C.3       1 <0>         0.0994
      7 C5          0.6812   -0.4437    1.2389 C.3       1 <0>        -0.0227
      8 C6         -0.9968   -3.5709    1.8187 C.ar      1 <0>         0.2074
      9 C7         -2.3135   -4.0139    1.7085 C.ar      1 <0>        -0.1818
     10 C8         -2.7774   -5.0194    2.5074 C.ar      1 <0>        -0.0222
     11 C9         -1.9285   -5.6146    3.4464 C.ar      1 <0>         0.0304
     12 C10        -0.5995   -5.1701    3.5596 C.ar      1 <0>         0.0895
     13 C11        -0.1388   -4.1511    2.7390 C.ar      1 <0>        -0.1811
     14 N3         -0.0189   -5.9347    4.5550 N.pl3     1 <0>        -0.5821
     15 C12        -0.9787   -6.8015    5.0117 C.2       1 <0>         0.3924
     16 N4         -2.0987   -6.6076    4.3554 N.2       1 <0>        -0.5251
     17 C13        -0.7820   -7.7995    6.0770 C.2       1 <0>        -0.2906
     18 C14        -1.7920   -8.7149    6.3763 C.2       1 <0>         0.3670
     19 C15        -1.5435   -9.6876    7.4468 C.ar      1 <0>        -0.1106
     20 C16        -2.4962  -10.6422    7.8155 C.ar      1 <0>        -0.1006
     21 C17        -2.1871  -11.5220    8.8313 C.ar      1 <0>         0.0699
     22 N5         -1.0201  -11.4715    9.4483 N.ar      1 <0>        -0.4306
     23 C18        -0.0909  -10.5922    9.1382 C.ar      1 <0>         0.0825
     24 C19        -0.3115   -9.6636    8.1255 C.ar      1 <0>         0.1585
     25 N6          0.6462   -8.7328    7.7816 N.am      1 <0>        -0.6283
     26 C20         0.4358   -7.8395    6.7997 C.2       1 <0>         0.5806
     27 O1          1.3136   -7.0393    6.5276 O.2       1 <0>        -0.5588
     28 N7         -2.9825   -8.7056    5.6901 N.pl3     1 <0>        -0.7970
     29 H1          0.9683    1.8898    0.0532 H         1 <0>         0.1247
     30 H2         -0.5813    1.8715   -0.8225 H         1 <0>         0.1250
     31 H3         -0.5647    1.8589    0.9573 H         1 <0>         0.1214
     32 H4         -1.8997   -0.1877    0.9788 H         1 <0>         0.1327
     33 H5         -1.9517   -0.0413   -0.7945 H         1 <0>         0.1409
     34 H6         -2.3984   -2.3853    0.0211 H         1 <0>         0.1284
     35 H7         -0.9757   -2.2764   -1.0490 H         1 <0>         0.0878
     36 H8          1.2426   -2.3425    2.0977 H         1 <0>         0.1253
     37 H9          1.4375   -2.2480    0.3274 H         1 <0>         0.0875
     38 H10         1.6756    0.0013    1.2743 H         1 <0>         0.1403
     39 H11         0.1255   -0.1640    2.1339 H         1 <0>         0.1325
     40 H12        -2.9729   -3.5577    0.9851 H         1 <0>         0.1296
     41 H13        -3.7998   -5.3549    2.4145 H         1 <0>         0.1353
     42 H14         0.8824   -3.8090    2.8198 H         1 <0>         0.1231
     43 H15        -3.4527  -10.6893    7.3162 H         1 <0>         0.1483
     44 H16        -2.9122  -12.2654    9.1279 H         1 <0>         0.1710
     45 H17         0.8477  -10.5915    9.6725 H         1 <0>         0.1742
     46 H18        -3.1011   -8.1115    4.9326 H         1 <0>         0.4328
     47 H19        -3.7044   -9.2931    5.9633 H         1 <0>         0.4050
     48 H20         1.4921   -8.7253    8.2562 H         1 <0>         0.4236
     49 H21         0.4459   -0.2802   -0.7801 H         1 <0>         0.4247
     50 H22         0.8960   -5.8703    4.8706 H         1 <0>         0.4363
@<TRIPOS>BOND
     1    1    2 1
     2    1   29 1
     3    1   30 1
     4    1   31 1
     5    2    7 1
     6    2    3 1
     7    2   49 1
     8    3    4 1
     9    3   32 1
    10    3   33 1
    11    4    5 1
    12    4   34 1
    13    4   35 1
    14    5    6 1
    15    5    8 1
    16    6    7 1
    17    6   36 1
    18    6   37 1
    19    7   38 1
    20    7   39 1
    21    8   13 ar
    22    8    9 ar
    23    9   10 ar
    24    9   40 1
    25   10   11 ar
    26   10   41 1
    27   11   16 1
    28   11   12 ar
    29   12   13 ar
    30   12   14 1
    31   13   42 1
    32   14   15 1
    33   14   50 1
    34   15   16 2
    35   15   17 1
    36   17   26 1
    37   17   18 2
    38   18   19 1
    39   18   28 1
    40   19   24 ar
    41   19   20 ar
    42   20   21 ar
    43   20   43 1
    44   21   22 ar
    45   21   44 1
    46   22   23 ar
    47   23   24 ar
    48   23   45 1
    49   24   25 1
    50   25   26 am
    51   25   48 1
    52   26   27 2
    53   28   46 1
    54   28   47 1
@<TRIPOS>MOLECULE
CHEMBL205893__1
   49    53     0     0     0
SMALL
USER_CHARGES

@<TRIPOS>ATOM
      1 C1          0.0304    1.3919   -0.1135 C.3       1 <0>         0.0243
      2 N1          0.0492   -0.0769   -0.0983 N.3       1 <0>        -0.5426
      3 C2         -1.3117   -0.6218   -0.1941 C.3       1 <0>         0.0380
      4 C3         -1.2386   -2.1437   -0.3575 C.3       1 <0>         0.1272
      5 N2         -0.4246   -2.6926    0.7376 N.pl3     1 <0>        -0.6317
      6 C4          0.9001   -2.1025    0.9834 C.3       1 <0>         0.1272
      7 C5          0.7428   -0.5823    1.0939 C.3       1 <0>         0.0388
      8 C6         -0.8976   -3.7485    1.5246 C.ar      1 <0>         0.2177
      9 C7         -2.2001   -4.2126    1.3510 C.ar      1 <0>        -0.1713
     10 C8         -2.6782   -5.2522    2.1199 C.ar      1 <0>        -0.0594
     11 C9         -1.8606   -5.8421    3.0729 C.ar      1 <0>        -0.0033
     12 C10        -0.5454   -5.3807    3.2552 C.ar      1 <0>         0.1128
     13 C11        -0.0686   -4.3292    2.4659 C.ar      1 <0>        -0.1710
     14 N3          0.0113   -6.1308    4.2379 N.2       1 <0>        -0.5405
     15 C12        -0.8613   -7.0128    4.6687 C.2       1 <0>         0.3888
     16 N4         -2.0369   -6.8752    3.9789 N.pl3     1 <0>        -0.5795
     17 H1         -2.8418   -7.4023    4.1018 H         1 <0>         0.4328
     18 C13        -0.6135   -8.0006    5.7325 C.2       1 <0>        -0.2819
     19 C14         0.5811   -7.9705    6.4540 C.2       1 <0>         0.3592
     20 C15         0.7764   -8.9782    7.5031 C.ar      1 <0>        -0.1073
     21 C16         1.9400   -9.0252    8.2769 C.ar      1 <0>        -0.1008
     22 C17         2.0481  -10.0024    9.2438 C.ar      1 <0>         0.0656
     23 N5          1.0794  -10.8786    9.4419 N.ar      1 <0>        -0.4340
     24 C18        -0.0342  -10.8759    8.7403 C.ar      1 <0>         0.0797
     25 C19        -0.2341   -9.9272    7.7419 C.ar      1 <0>         0.1594
     26 N6         -1.3922   -9.9032    6.9936 N.am      1 <0>        -0.6295
     27 C20        -1.5884   -8.9833    6.0335 C.2       1 <0>         0.5778
     28 O1         -2.6304   -8.9981    5.4019 O.2       1 <0>        -0.5527
     29 N7          1.5442   -7.0273    6.1900 N.pl3     1 <0>        -0.7980
     30 H2          1.0533    1.7683   -0.1185 H         1 <0>         0.0703
     31 H3         -0.4890    1.7394   -1.0066 H         1 <0>         0.0699
     32 H4         -0.4871    1.7578    0.7733 H         1 <0>         0.0254
     33 H5         -1.8652   -0.3796    0.7131 H         1 <0>         0.0384
     34 H6         -1.8176   -0.1873   -1.0563 H         1 <0>         0.0852
     35 H7         -2.2428   -2.5653   -0.3141 H         1 <0>         0.0866
     36 H8         -0.7772   -2.3875   -1.3144 H         1 <0>         0.0698
     37 H9          1.3098   -2.4969    1.9133 H         1 <0>         0.0871
     38 H10         1.5671   -2.3424    0.1553 H         1 <0>         0.0692
     39 H11         1.7269   -0.1191    1.1659 H         1 <0>         0.0851
     40 H12         0.1607   -0.3405    1.9832 H         1 <0>         0.0383
     41 H13        -2.8388   -3.7550    0.6100 H         1 <0>         0.1306
     42 H14        -3.6887   -5.6069    1.9806 H         1 <0>         0.1238
     43 H15         0.9418   -3.9698    2.5941 H         1 <0>         0.1270
     44 H16         2.7363   -8.3126    8.1206 H         1 <0>         0.1473
     45 H17         2.9407  -10.0525    9.8497 H         1 <0>         0.1688
     46 H18        -0.7968  -11.6141    8.9402 H         1 <0>         0.1727
     47 H19         1.3676   -6.3196    5.5506 H         1 <0>         0.4345
     48 H20         2.4009   -7.0689    6.6431 H         1 <0>         0.4021
     49 H21        -2.0823  -10.5625    7.1666 H         1 <0>         0.4220
@<TRIPOS>BOND
     1    1    2 1
     2    1   30 1
     3    1   31 1
     4    1   32 1
     5    2    7 1
     6    2    3 1
     7    3    4 1
     8    3   33 1
     9    3   34 1
    10    4    5 1
    11    4   35 1
    12    4   36 1
    13    5    6 1
    14    5    8 1
    15    6    7 1
    16    6   37 1
    17    6   38 1
    18    7   39 1
    19    7   40 1
    20    8   13 ar
    21    8    9 ar
    22    9   10 ar
    23    9   41 1
    24   10   11 ar
    25   10   42 1
    26   11   16 1
    27   11   12 ar
    28   12   13 ar
    29   12   14 1
    30   13   43 1
    31   14   15 2
    32   15   16 1
    33   15   18 1
    34   16   17 1
    35   18   27 1
    36   18   19 2
    37   19   20 1
    38   19   29 1
    39   20   25 ar
    40   20   21 ar
    41   21   22 ar
    42   21   44 1
    43   22   23 ar
    44   22   45 1
    45   23   24 ar
    46   24   25 ar
    47   24   46 1
    48   25   26 1
    49   26   27 am
    50   26   49 1
    51   27   28 2
    52   29   47 1
    53   29   48 1
@<TRIPOS>MOLECULE
CHEMBL205893__2
   50    54     0     0     0
SMALL
USER_CHARGES

@<TRIPOS>ATOM
      1 C1          0.0277    1.3839   -0.1156 C.3       1 <0>        -0.0469
      2 N1          0.0468   -0.0849   -0.0997 N.4       1 <0>        -0.3837
      3 C2         -1.3317   -0.5907   -0.1027 C.3       1 <0>        -0.0236
      4 C3         -1.3135   -2.1196   -0.2019 C.3       1 <0>         0.1009
      5 N2         -0.4754   -2.6476    0.8857 N.pl3     1 <0>        -0.6444
      6 C4          0.8690   -2.0775    1.0641 C.3       1 <0>         0.1003
      7 C5          0.7478   -0.5506    1.1035 C.3       1 <0>        -0.0229
      8 C6         -0.9438   -3.6628    1.7270 C.ar      1 <0>         0.1933
      9 C7         -2.2611   -4.1034    1.6144 C.ar      1 <0>        -0.1704
     10 C8         -2.7349   -5.1029    2.4371 C.ar      1 <0>        -0.0529
     11 C9         -1.8981   -5.6757    3.3840 C.ar      1 <0>         0.0106
     12 C10        -0.5679   -5.2378    3.5050 C.ar      1 <0>         0.1107
     13 C11        -0.0958   -4.2270    2.6614 C.ar      1 <0>        -0.1518
     14 N3          0.0058   -5.9636    4.4961 N.2       1 <0>        -0.5428
     15 C12        -0.8703   -6.8093    4.9884 C.2       1 <0>         0.4077
     16 N4         -2.0654   -6.6705    4.3334 N.pl3     1 <0>        -0.5779
     17 H1         -2.8768   -7.1744    4.5027 H         1 <0>         0.4378
     18 C13        -0.6075   -7.7626    6.0797 C.2       1 <0>        -0.2923
     19 C14         0.6110   -7.7325    6.7600 C.2       1 <0>         0.3695
     20 C15         0.8204   -8.7052    7.8391 C.ar      1 <0>        -0.1123
     21 C16         2.0081   -8.7496    8.5754 C.ar      1 <0>        -0.1007
     22 C17         2.1282   -9.6928    9.5741 C.ar      1 <0>         0.0692
     23 N5          1.1486  -10.5395    9.8366 N.ar      1 <0>        -0.4299
     24 C18         0.0123  -10.5378    9.1723 C.ar      1 <0>         0.0831
     25 C19        -0.2012   -9.6221    8.1462 C.ar      1 <0>         0.1603
     26 N6         -1.3830   -9.5999    7.4360 N.am      1 <0>        -0.6281
     27 C20        -1.5922   -8.7117    6.4492 C.2       1 <0>         0.5796
     28 O1         -2.6549   -8.7266    5.8531 O.2       1 <0>        -0.5542
     29 N7          1.5843   -6.8212    6.4294 N.pl3     1 <0>        -0.7977
     30 H2          1.0505    1.7605   -0.1215 H         1 <0>         0.1246
     31 H3         -0.4925    1.7308   -1.0084 H         1 <0>         0.1247
     32 H4         -0.4893    1.7500    0.7715 H         1 <0>         0.1213
     33 H5         -1.8303   -0.2922    0.8195 H         1 <0>         0.1323
     34 H6         -1.8686   -0.1774   -0.9565 H         1 <0>         0.1401
     35 H7         -2.3282   -2.5052   -0.1025 H         1 <0>         0.1270
     36 H8         -0.8972   -2.4193   -1.1636 H         1 <0>         0.0870
     37 H9          1.2972   -2.4353    2.0004 H         1 <0>         0.1268
     38 H10         1.5057   -2.3730    0.2302 H         1 <0>         0.0866
     39 H11         1.7432   -0.1078    1.1386 H         1 <0>         0.1400
     40 H12         0.1863   -0.2533    1.9892 H         1 <0>         0.1322
     41 H13        -2.9147   -3.6590    0.8784 H         1 <0>         0.1301
     42 H14        -3.7569   -5.4396    2.3450 H         1 <0>         0.1302
     43 H15         0.9257   -3.8861    2.7424 H         1 <0>         0.1277
     44 H16         2.8134   -8.0610    8.3665 H         1 <0>         0.1476
     45 H17         3.0394   -9.7404   10.1519 H         1 <0>         0.1709
     46 H18        -0.7584  -11.2510    9.4247 H         1 <0>         0.1748
     47 H19         1.4010   -6.1336    5.7703 H         1 <0>         0.4323
     48 H20         2.4548   -6.8654    6.8551 H         1 <0>         0.4045
     49 H21        -2.0805  -10.2370    7.6562 H         1 <0>         0.4244
     50 H22         0.5281   -0.4226   -0.9197 H         1 <0>         0.4244
@<TRIPOS>BOND
     1    1    2 1
     2    1   30 1
     3    1   31 1
     4    1   32 1
     5    2    7 1
     6    2    3 1
     7    2   50 1
     8    3    4 1
     9    3   33 1
    10    3   34 1
    11    4    5 1
    12    4   35 1
    13    4   36 1
    14    5    6 1
    15    5    8 1
    16    6    7 1
    17    6   37 1
    18    6   38 1
    19    7   39 1
    20    7   40 1
    21    8   13 ar
    22    8    9 ar
    23    9   10 ar
    24    9   41 1
    25   10   11 ar
    26   10   42 1
    27   11   16 1
    28   11   12 ar
    29   12   13 ar
    30   12   14 1
    31   13   43 1
    32   14   15 2
    33   15   16 1
    34   15   18 1
    35   16   17 1
    36   18   27 1
    37   18   19 2
    38   19   20 1
    39   19   29 1
    40   20   25 ar
    41   20   21 ar
    42   21   22 ar
    43   21   44 1
    44   22   23 ar
    45   22   45 1
    46   23   24 ar
    47   24   25 ar
    48   24   46 1
    49   25   26 1
    50   26   27 am
    51   26   49 1
    52   27   28 2
    53   29   47 1
    54   29   48 1
@<TRIPOS>MOLECULE
CHEMBL270556
   45    48     0     0     0
SMALL
USER_CHARGES

@<TRIPOS>ATOM
      1 C1          0.0158    1.2867   -0.0194 C.3       1 <0>         0.0215
      2 O1          0.0629   -0.1414   -0.0340 O.3       1 <0>        -0.3001
      3 C2          0.6818   -0.7279   -1.0932 C.ar      1 <0>         0.1095
      4 C3          1.2253    0.0518   -2.0739 C.ar      1 <0>        -0.1357
      5 C4          1.8631   -0.5512   -3.1655 C.ar      1 <0>        -0.1545
      6 C5          1.9407   -1.9644   -3.2460 C.ar      1 <0>         0.1971
      7 C6          1.3767   -2.7438   -2.2285 C.ar      1 <0>        -0.1865
      8 C7          0.7598   -2.1261   -1.1634 C.ar      1 <0>         0.1686
      9 O2          0.2162   -2.8798   -0.1725 O.3       1 <0>        -0.2956
     10 C8          0.3280   -4.2986   -0.3010 C.3       1 <0>         0.0194
     11 N1          2.5574   -2.5167   -4.3018 N.ar      1 <0>        -0.5250
     12 C9          3.0767   -1.7595   -5.2384 C.ar      1 <0>         0.3387
     13 N2          3.0279   -0.4368   -5.2037 N.ar      1 <0>        -0.5744
     14 C10         2.4421    0.2089   -4.2066 C.ar      1 <0>         0.4000
     15 O3          2.4001    1.5613   -4.1849 O.3       1 <0>        -0.2387
     16 C11         3.0635    2.2359   -5.1602 C.ar      1 <0>         0.0964
     17 C12         2.5234    2.2950   -6.4483 C.ar      1 <0>        -0.1052
     18 C13         3.1656    2.9640   -7.4451 C.ar      1 <0>        -0.0986
     19 C14         4.3849    3.6036   -7.1810 C.ar      1 <0>        -0.0074
     20 C15         4.9359    3.5464   -5.8775 C.ar      1 <0>        -0.0494
     21 C16         4.2471    2.8526   -4.8684 C.ar      1 <0>        -0.1016
     22 C17         6.1582    4.1887   -5.6131 C.ar      1 <0>        -0.0675
     23 C18         6.8062    4.8614   -6.6055 C.ar      1 <0>        -0.1283
     24 C19         6.2815    4.9285   -7.8899 C.ar      1 <0>        -0.0662
     25 C20         5.0787    4.3088   -8.1959 C.ar      1 <0>        -0.1295
     26 C21         4.5277    4.3838   -9.5617 C.2       1 <0>         0.5676
     27 O4          3.4230    3.9336   -9.7972 O.2       1 <0>        -0.5323
     28 N3          5.2487    4.9512  -10.5490 N.am      1 <0>        -0.8477
     29 H1          1.0308    1.6838   -0.0221 H         1 <0>         0.0591
     30 H2         -0.5156    1.6417   -0.9024 H         1 <0>         0.0595
     31 H3         -0.5039    1.6239    0.8775 H         1 <0>         0.1066
     32 H4          1.1634    1.1280   -2.0083 H         1 <0>         0.1533
     33 H5          1.4281   -3.8215   -2.2769 H         1 <0>         0.1585
     34 H6         -0.1461   -4.7794    0.5547 H         1 <0>         0.1079
     35 H7         -0.1656   -4.6204   -1.2181 H         1 <0>         0.0627
     36 H8          1.3808   -4.5783   -0.3378 H         1 <0>         0.0626
     37 H9          3.5662   -2.2360   -6.0749 H         1 <0>         0.2011
     38 H10         1.5845    1.8032   -6.6555 H         1 <0>         0.1294
     39 H11         2.7374    3.0016   -8.4359 H         1 <0>         0.1763
     40 H12         4.6529    2.8038   -3.8688 H         1 <0>         0.1377
     41 H13         6.5843    4.1493   -4.6215 H         1 <0>         0.1351
     42 H14         7.7441    5.3513   -6.3894 H         1 <0>         0.1348
     43 H15         6.8154    5.4683   -8.6580 H         1 <0>         0.1308
     44 H16         6.1299    5.3103  -10.3612 H         1 <0>         0.4017
     45 H17         4.8862    5.0005  -11.4474 H         1 <0>         0.4084
@<TRIPOS>BOND
     1    1    2 1
     2    1   29 1
     3    1   30 1
     4    1   31 1
     5    2    3 1
     6    3    8 ar
     7    3    4 ar
     8    4    5 ar
     9    4   32 1
    10    5   14 ar
    11    5    6 ar
    12    6    7 ar
    13    6   11 ar
    14    7    8 ar
    15    7   33 1
    16    8    9 1
    17    9   10 1
    18   10   34 1
    19   10   35 1
    20   10   36 1
    21   11   12 ar
    22   12   13 ar
    23   12   37 1
    24   13   14 ar
    25   14   15 1
    26   15   16 1
    27   16   21 ar
    28   16   17 ar
    29   17   18 ar
    30   17   38 1
    31   18   19 ar
    32   18   39 1
    33   19   25 ar
    34   19   20 ar
    35   20   21 ar
    36   20   22 ar
    37   21   40 1
    38   22   23 ar
    39   22   41 1
    40   23   24 ar
    41   23   42 1
    42   24   25 ar
    43   24   43 1
    44   25   26 1
    45   26   27 2
    46   26   28 am
    47   28   44 1
    48   28   45 1
@<TRIPOS>MOLECULE
CHEMBL200324
   61    64     0     0     0
SMALL
USER_CHARGES

@<TRIPOS>ATOM
      1 C1          3.2278   -5.1712   -8.6406 C.3       1 <0>         0.0307
      2 O1          2.6731   -5.4084   -7.3452 O.3       1 <0>        -0.3847
      3 C2          3.3993   -6.3625   -6.5678 C.3       1 <0>         0.0628
      4 C3          2.7192   -6.5363   -5.2083 C.3       1 <0>         0.0532
      5 O2          1.4228   -7.1080   -5.3939 O.3       1 <0>        -0.2851
      6 C4          0.6809   -7.3294   -4.2777 C.ar      1 <0>         0.1683
      7 C5          1.1898   -6.9992   -3.0536 C.ar      1 <0>        -0.1825
      8 C6          0.4246   -7.2273   -1.9010 C.ar      1 <0>         0.1925
      9 C7         -0.8695   -7.7991   -2.0253 C.ar      1 <0>        -0.1526
     10 C8         -1.3660   -8.1276   -3.2898 C.ar      1 <0>        -0.1619
     11 C9         -0.6008   -7.8891   -4.3977 C.ar      1 <0>         0.1283
     12 O3         -1.0845   -8.2024   -5.6283 O.3       1 <0>        -0.2940
     13 C10        -2.3951   -8.7691   -5.6852 C.3       1 <0>         0.0217
     14 C11        -1.6201   -8.0176   -0.8413 C.ar      1 <0>         0.3648
     15 N1         -1.0702   -7.6746    0.3215 N.ar      1 <0>        -0.5161
     16 C12         0.1383   -7.1456    0.3829 C.ar      1 <0>         0.3213
     17 N2          0.8774   -6.9212   -0.6793 N.ar      1 <0>        -0.5111
     18 N3         -2.8665   -8.5617   -0.8929 N.2       1 <0>        -0.3876
     19 C13        -3.0117   -9.8562   -0.9177 C.2       1 <0>         0.1670
     20 C14        -4.3693  -10.5130   -1.1095 C.3       1 <0>        -0.1071
     21 C15        -4.2080  -11.5483   -2.2023 C.2       1 <0>         0.4030
     22 C16        -2.9882  -12.3778   -2.2397 C.2       1 <0>         0.1122
     23 C17        -1.8679  -12.0146   -1.5680 C.2       1 <0>        -0.2948
     24 C18        -1.8571  -10.7848   -0.7661 C.2       1 <0>         0.3852
     25 O4         -0.9404  -10.5368   -0.0056 O.2       1 <0>        -0.3995
     26 O5         -2.9879  -13.5242   -2.9585 O.3       1 <0>        -0.2729
     27 C19        -1.7805  -14.2887   -2.9600 C.3       1 <0>         0.0492
     28 C20        -1.9703  -15.5400   -3.8197 C.3       1 <0>         0.0604
     29 O6         -2.1764  -15.1561   -5.1807 O.3       1 <0>        -0.3092
     30 C21        -2.3629  -16.1558   -6.0822 C.ar      1 <0>         0.1276
     31 C22        -2.3536  -17.4787   -5.6646 C.ar      1 <0>        -0.2103
     32 C23        -2.5439  -18.4930   -6.5829 C.ar      1 <0>        -0.0799
     33 C24        -2.7431  -18.1907   -7.9173 C.ar      1 <0>        -0.1565
     34 C25        -2.7524  -16.8730   -8.3361 C.ar      1 <0>        -0.0795
     35 C26        -2.5687  -15.8548   -7.4208 C.ar      1 <0>        -0.1496
     36 O7         -5.0703  -11.6942   -3.0359 O.2       1 <0>        -0.3806
     37 H1          4.2451   -4.7940   -8.5368 H         1 <0>         0.0426
     38 H2          3.2417   -6.1030   -9.2060 H         1 <0>         0.0437
     39 H3          2.6195   -4.4358   -9.1672 H         1 <0>         0.0887
     40 H4          3.4168   -7.3190   -7.0902 H         1 <0>         0.0639
     41 H5          4.4202   -6.0100   -6.4209 H         1 <0>         0.0760
     42 H6          3.3209   -7.1956   -4.5827 H         1 <0>         0.0853
     43 H7          2.6219   -5.5648   -4.7239 H         1 <0>         0.0794
     44 H8          2.1756   -6.5654   -2.9742 H         1 <0>         0.1581
     45 H9         -2.3491   -8.5631   -3.3915 H         1 <0>         0.1429
     46 H10        -2.6586   -8.9715   -6.7234 H         1 <0>         0.1101
     47 H11        -2.4136   -9.6995   -5.1176 H         1 <0>         0.0545
     48 H12        -3.1127   -8.0686   -5.2582 H         1 <0>         0.0606
     49 H13         0.5375   -6.8850    1.3520 H         1 <0>         0.2027
     50 H14        -4.6836  -10.9950   -0.1837 H         1 <0>         0.1541
     51 H15        -0.9815  -12.6290   -1.6257 H         1 <0>         0.1606
     52 H16        -0.9696  -13.6862   -3.3693 H         1 <0>         0.0872
     53 H17        -1.5354  -14.5827   -1.9395 H         1 <0>         0.0999
     54 H18        -1.0815  -16.1671   -3.7497 H         1 <0>         0.0922
     55 H19        -2.8370  -16.0971   -3.4641 H         1 <0>         0.0799
     56 H20        -2.1973  -17.7154   -4.6225 H         1 <0>         0.1268
     57 H21        -2.5367  -19.5231   -6.2583 H         1 <0>         0.1258
     58 H22        -2.8913  -18.9851   -8.6338 H         1 <0>         0.1250
     59 H23        -2.9079  -16.6394   -9.3791 H         1 <0>         0.1307
     60 H24        -2.5805  -14.8255   -7.7477 H         1 <0>         0.1310
     61 H25        -5.1050   -9.7663   -1.4082 H         1 <0>         0.1455
@<TRIPOS>BOND
     1    1    2 1
     2    1   37 1
     3    1   38 1
     4    1   39 1
     5    2    3 1
     6    3    4 1
     7    3   40 1
     8    3   41 1
     9    4    5 1
    10    4   42 1
    11    4   43 1
    12    5    6 1
    13    6   11 ar
    14    6    7 ar
    15    7    8 ar
    16    7   44 1
    17    8   17 ar
    18    8    9 ar
    19    9   10 ar
    20    9   14 ar
    21   10   11 ar
    22   10   45 1
    23   11   12 1
    24   12   13 1
    25   13   46 1
    26   13   47 1
    27   13   48 1
    28   14   15 ar
    29   14   18 1
    30   15   16 ar
    31   16   17 ar
    32   16   49 1
    33   18   19 2
    34   19   24 1
    35   19   20 1
    36   20   50 1
    37   20   61 1
    38   20   21 1
    39   21   36 2
    40   21   22 1
    41   22   26 1
    42   22   23 2
    43   23   24 1
    44   23   51 1
    45   24   25 2
    46   26   27 1
    47   27   28 1
    48   27   52 1
    49   27   53 1
    50   28   29 1
    51   28   54 1
    52   28   55 1
    53   29   30 1
    54   30   35 ar
    55   30   31 ar
    56   31   32 ar
    57   31   56 1
    58   32   33 ar
    59   32   57 1
    60   33   34 ar
    61   33   58 1
    62   34   35 ar
    63   34   59 1
    64   35   60 1
@<TRIPOS>MOLECULE
CHEMBL333640
   64    68     0     0     0
SMALL
USER_CHARGES

@<TRIPOS>ATOM
      1 C1         -0.5232    1.4623   -0.0701 C.3       1 <0>         0.0299
      2 O1         -0.3184    0.0480   -0.0725 O.3       1 <0>        -0.3991
      3 C2         -1.5247   -0.7141    0.0042 C.3       1 <0>         0.0269
      4 C3         -1.1868   -2.2063   -0.0056 C.3       1 <0>        -0.0107
      5 N1         -0.4035   -2.5388    1.1918 N.4       1 <0>        -0.3839
      6 C4          0.0412   -3.9367    1.1135 C.3       1 <0>        -0.0075
      7 C5          1.0084   -4.0991   -0.0609 C.3       1 <0>         0.0272
      8 O2          2.1925   -3.3392    0.1886 O.3       1 <0>        -0.3219
      9 C6          3.1608   -3.3751   -0.7642 C.ar      1 <0>         0.1266
     10 C7          2.9700   -4.1231   -1.9179 C.ar      1 <0>        -0.2005
     11 C8          3.9510   -4.1615   -2.8867 C.ar      1 <0>        -0.0555
     12 C9          5.1347   -3.4484   -2.7064 C.ar      1 <0>        -0.0599
     13 C10         5.3234   -2.6983   -1.5471 C.ar      1 <0>        -0.0582
     14 C11         4.3365   -2.6592   -0.5844 C.ar      1 <0>        -0.1368
     15 C12         6.1923   -3.4880   -3.7467 C.2       1 <0>        -0.1581
     16 C13         6.8580   -4.6978   -4.0435 C.2       1 <0>         0.1929
     17 N2          7.7919   -4.7264   -4.9633 N.2       1 <0>        -0.4461
     18 C14         8.1317   -3.6207   -5.6354 C.2       1 <0>         0.2619
     19 C15         9.0726   -3.3807   -6.6427 C.2       1 <0>        -0.1640
     20 C16         8.9922   -2.0253   -6.9721 C.2       1 <0>         0.1107
     21 N3          8.0708   -1.4608   -6.2271 N.2       1 <0>        -0.3029
     22 N4          7.5110   -2.4238   -5.3801 N.pl3     1 <0>        -0.3128
     23 C17         6.5300   -2.3559   -4.4329 C.2       1 <0>         0.1842
     24 C18         9.9867   -4.3806   -7.2490 C.2       1 <0>        -0.0426
     25 C19        10.0907   -4.5032   -8.6310 C.2       1 <0>        -0.1479
     26 C20        10.9352   -5.4260   -9.1461 C.2       1 <0>        -0.1705
     27 S1         11.6259   -6.1678   -7.6771 S.3       1 <0>         0.0423
     28 C21        10.7490   -5.1972   -6.4625 C.2       1 <0>        -0.1515
     29 C22        -1.2363   -2.3562    2.3881 C.3       1 <0>         0.0392
     30 C23        -0.3954   -2.5617    3.6217 C.ar      1 <0>        -0.1602
     31 C24        -0.3699   -3.7962    4.2430 C.ar      1 <0>        -0.0965
     32 C25         0.4014   -3.9847    5.3746 C.ar      1 <0>        -0.1131
     33 C26         1.1475   -2.9387    5.8846 C.ar      1 <0>        -0.0835
     34 C27         1.1227   -1.7044    5.2627 C.ar      1 <0>        -0.1114
     35 C28         0.3548   -1.5171    4.1287 C.ar      1 <0>        -0.0923
     36 H1          0.4400    1.9690   -0.1306 H         1 <0>         0.1004
     37 H2         -1.1355    1.7422   -0.9273 H         1 <0>         0.0555
     38 H3         -1.0302    1.7544    0.8495 H         1 <0>         0.0517
     39 H4         -2.0526   -0.4671    0.9253 H         1 <0>         0.0755
     40 H5         -2.1579   -0.4793   -0.8515 H         1 <0>         0.0988
     41 H6         -2.1088   -2.7876   -0.0096 H         1 <0>         0.1465
     42 H7         -0.6052   -2.4412   -0.8970 H         1 <0>         0.1383
     43 H8          0.5458   -4.2099    2.0402 H         1 <0>         0.1444
     44 H9         -0.8224   -4.5849    0.9652 H         1 <0>         0.1502
     45 H10         1.2691   -5.1514   -0.1740 H         1 <0>         0.1103
     46 H11         0.5334   -3.7423   -0.9748 H         1 <0>         0.0867
     47 H12         2.0526   -4.6759   -2.0569 H         1 <0>         0.1316
     48 H13         3.8021   -4.7439   -3.7839 H         1 <0>         0.1347
     49 H14         6.2397   -2.1447   -1.4047 H         1 <0>         0.1377
     50 H15         4.4802   -2.0743    0.3120 H         1 <0>         0.1373
     51 H16         6.5976   -5.6009   -3.5116 H         1 <0>         0.1806
     52 H17         9.5911   -1.5237   -7.7178 H         1 <0>         0.2039
     53 H18         6.0313   -1.4204   -4.2265 H         1 <0>         0.1799
     54 H19         9.5057   -3.8713   -9.2828 H         1 <0>         0.1337
     55 H20        11.1391   -5.6554  -10.1816 H         1 <0>         0.1875
     56 H21        10.8056   -5.2441   -5.3850 H         1 <0>         0.1810
     57 H22        -1.6485   -1.3471    2.3932 H         1 <0>         0.1366
     58 H23        -2.0502   -3.0811    2.3783 H         1 <0>         0.1374
     59 H24        -0.9529   -4.6134    3.8446 H         1 <0>         0.1311
     60 H25         0.4208   -4.9491    5.8604 H         1 <0>         0.1362
     61 H26         1.7496   -3.0858    6.7691 H         1 <0>         0.1358
     62 H27         1.7054   -0.8871    5.6613 H         1 <0>         0.1358
     63 H28         0.3383   -0.5538    3.6407 H         1 <0>         0.1295
     64 H29         0.4012   -1.9324    1.2464 H         1 <0>         0.4371
@<TRIPOS>BOND
     1    1    2 1
     2    1   36 1
     3    1   37 1
     4    1   38 1
     5    2    3 1
     6    3    4 1
     7    3   39 1
     8    3   40 1
     9    4    5 1
    10    4   41 1
    11    4   42 1
    12    5    6 1
    13    5   29 1
    14    5   64 1
    15    6    7 1
    16    6   43 1
    17    6   44 1
    18    7    8 1
    19    7   45 1
    20    7   46 1
    21    8    9 1
    22    9   14 ar
    23    9   10 ar
    24   10   11 ar
    25   10   47 1
    26   11   12 ar
    27   11   48 1
    28   12   13 ar
    29   12   15 1
    30   13   14 ar
    31   13   49 1
    32   14   50 1
    33   15   23 2
    34   15   16 1
    35   16   17 2
    36   16   51 1
    37   17   18 1
    38   18   22 1
    39   18   19 2
    40   19   20 1
    41   19   24 1
    42   20   21 2
    43   20   52 1
    44   21   22 1
    45   22   23 1
    46   23   53 1
    47   24   28 2
    48   24   25 1
    49   25   26 2
    50   25   54 1
    51   26   27 1
    52   26   55 1
    53   27   28 1
    54   28   56 1
    55   29   30 1
    56   29   57 1
    57   29   58 1
    58   30   35 ar
    59   30   31 ar
    60   31   32 ar
    61   31   59 1
    62   32   33 ar
    63   32   60 1
    64   33   34 ar
    65   33   61 1
    66   34   35 ar
    67   34   62 1
    68   35   63 1
@<TRIPOS>MOLECULE
CHEMBL333640__1
   63    67     0     0     0
SMALL
USER_CHARGES

@<TRIPOS>ATOM
      1 C1          0.0281    1.4412    0.1063 C.3       1 <0>         0.0306
      2 O1          0.0602    0.0129    0.0785 O.3       1 <0>        -0.3689
      3 C2          0.6219   -0.5328   -1.1168 C.3       1 <0>         0.0659
      4 C3          0.6054   -2.0606   -1.0369 C.3       1 <0>         0.0491
      5 N1         -0.7847   -2.5338   -0.9960 N.3       1 <0>        -0.5144
      6 C4         -0.8524   -3.9302   -0.5451 C.3       1 <0>         0.0512
      7 C5         -0.3949   -4.0183    0.9123 C.3       1 <0>         0.0638
      8 O2         -1.3143   -3.3075    1.7439 O.3       1 <0>        -0.2865
      9 C6         -1.0518   -3.2874    3.0771 C.ar      1 <0>         0.1522
     10 C7          0.0721   -3.9350    3.5716 C.ar      1 <0>        -0.2114
     11 C8          0.3412   -3.9164    4.9242 C.ar      1 <0>        -0.0539
     12 C9         -0.5166   -3.2466    5.7947 C.ar      1 <0>        -0.0915
     13 C10        -1.6442   -2.5974    5.2954 C.ar      1 <0>        -0.0577
     14 C11        -1.9049   -2.6147    3.9411 C.ar      1 <0>        -0.1477
     15 C12        -0.2302   -3.2251    7.2507 C.2       1 <0>        -0.1375
     16 C13        -0.2529   -4.4213    8.0014 C.2       1 <0>         0.1959
     17 N2          0.0006   -4.3959    9.2875 N.2       1 <0>        -0.4535
     18 C14         0.2841   -3.2472    9.9117 C.2       1 <0>         0.2664
     19 C15         0.5850   -2.9471   11.2448 C.2       1 <0>        -0.1769
     20 C16         0.7948   -1.5680   11.3232 C.2       1 <0>         0.1071
     21 N3          0.6370   -1.0455   10.1296 N.2       1 <0>        -0.3068
     22 N4          0.3176   -2.0614    9.2218 N.pl3     1 <0>        -0.3093
     23 C17         0.0642   -2.0488    7.8803 C.2       1 <0>         0.1746
     24 C18         0.6663   -3.9146   12.3675 C.2       1 <0>        -0.0371
     25 C19         1.7678   -3.9269   13.2172 C.2       1 <0>        -0.1454
     26 C20         1.8054   -4.8234   14.2297 C.2       1 <0>        -0.1741
     27 S1          0.2636   -5.6970   14.0182 S.3       1 <0>         0.0331
     28 C21        -0.3415   -4.8090   12.5929 C.2       1 <0>        -0.1506
     29 C22        -1.4351   -2.3705   -2.3031 C.3       1 <0>         0.0913
     30 C23        -2.9285   -2.4889   -2.1393 C.ar      1 <0>        -0.0760
     31 C24        -3.5538   -3.7022   -2.3577 C.ar      1 <0>        -0.1164
     32 C25        -4.9236   -3.8108   -2.2075 C.ar      1 <0>        -0.1212
     33 C26        -5.6682   -2.7060   -1.8386 C.ar      1 <0>        -0.1190
     34 C27        -5.0428   -1.4929   -1.6193 C.ar      1 <0>        -0.1206
     35 C28        -3.6724   -1.3854   -1.7653 C.ar      1 <0>        -0.0901
     36 H1          1.0432    1.8292    0.0217 H         1 <0>         0.0369
     37 H2         -0.5715    1.8074   -0.7271 H         1 <0>         0.0383
     38 H3         -0.4120    1.7766    1.0454 H         1 <0>         0.0847
     39 H4          0.0347   -0.2075   -1.9756 H         1 <0>         0.0485
     40 H5          1.6493   -0.1858   -1.2268 H         1 <0>         0.0508
     41 H6          1.1049   -2.4756   -1.9123 H         1 <0>         0.0520
     42 H7          1.1256   -2.3829   -0.1349 H         1 <0>         0.0853
     43 H8         -1.8786   -4.2888   -0.6260 H         1 <0>         0.0932
     44 H9         -0.2025   -4.5450   -1.1677 H         1 <0>         0.0564
     45 H10        -0.3602   -5.0635    1.2197 H         1 <0>         0.0661
     46 H11         0.5975   -3.5780    1.0088 H         1 <0>         0.0648
     47 H12         0.7363   -4.4542    2.8966 H         1 <0>         0.1293
     48 H13         1.2155   -4.4207    5.3084 H         1 <0>         0.1267
     49 H14        -2.3107   -2.0776    5.9676 H         1 <0>         0.1298
     50 H15        -2.7760   -2.1077    3.5529 H         1 <0>         0.1347
     51 H16        -0.4797   -5.3586    7.5152 H         1 <0>         0.1816
     52 H17         1.0453   -1.0210   12.2201 H         1 <0>         0.2006
     53 H18         0.0920   -1.1224    7.3259 H         1 <0>         0.1809
     54 H19         2.5810   -3.2314   13.0706 H         1 <0>         0.1332
     55 H20         2.5725   -4.9725   14.9752 H         1 <0>         0.1859
     56 H21        -1.2647   -4.9443   12.0491 H         1 <0>         0.1812
     57 H22        -1.1908   -1.3895   -2.7104 H         1 <0>         0.0841
     58 H23        -1.0817   -3.1449   -2.9839 H         1 <0>         0.0440
     59 H24        -2.9721   -4.5653   -2.6460 H         1 <0>         0.1162
     60 H25        -5.4122   -4.7586   -2.3788 H         1 <0>         0.1200
     61 H26        -6.7385   -2.7907   -1.7219 H         1 <0>         0.1198
     62 H27        -5.6245   -0.6297   -1.3314 H         1 <0>         0.1204
     63 H28        -3.1833   -0.4385   -1.5904 H         1 <0>         0.1200
@<TRIPOS>BOND
     1    1    2 1
     2    1   36 1
     3    1   37 1
     4    1   38 1
     5    2    3 1
     6    3    4 1
     7    3   39 1
     8    3   40 1
     9    4    5 1
    10    4   41 1
    11    4   42 1
    12    5    6 1
    13    5   29 1
    14    6    7 1
    15    6   43 1
    16    6   44 1
    17    7    8 1
    18    7   45 1
    19    7   46 1
    20    8    9 1
    21    9   14 ar
    22    9   10 ar
    23   10   11 ar
    24   10   47 1
    25   11   12 ar
    26   11   48 1
    27   12   13 ar
    28   12   15 1
    29   13   14 ar
    30   13   49 1
    31   14   50 1
    32   15   23 2
    33   15   16 1
    34   16   17 2
    35   16   51 1
    36   17   18 1
    37   18   22 1
    38   18   19 2
    39   19   20 1
    40   19   24 1
    41   20   21 2
    42   20   52 1
    43   21   22 1
    44   22   23 1
    45   23   53 1
    46   24   28 2
    47   24   25 1
    48   25   26 2
    49   25   54 1
    50   26   27 1
    51   26   55 1
    52   27   28 1
    53   28   56 1
    54   29   30 1
    55   29   57 1
    56   29   58 1
    57   30   35 ar
    58   30   31 ar
    59   31   32 ar
    60   31   59 1
    61   32   33 ar
    62   32   60 1
    63   33   34 ar
    64   33   61 1
    65   34   35 ar
    66   34   62 1
    67   35   63 1
@<TRIPOS>MOLECULE
CHEMBL200765
   50    52     0     0     0
SMALL
USER_CHARGES

@<TRIPOS>ATOM
      1 C1         -7.0199   -2.0376    5.5106 C.3       1 <0>        -0.1526
      2 C2         -5.9840   -2.2420    4.4034 C.3       1 <0>         0.0571
      3 O1         -5.4867   -3.5806    4.4575 O.3       1 <0>        -0.3015
      4 C3         -4.6320   -3.9588    3.4780 C.2       1 <0>         0.0878
      5 C4         -3.3444   -4.2496    3.7946 C.2       1 <0>        -0.1175
      6 C5         -2.3946   -4.6380    2.7379 C.2       1 <0>         0.3837
      7 O2         -1.2000   -4.7128    2.9558 O.2       1 <0>        -0.3649
      8 C6         -2.9576   -4.9359    1.3920 C.2       1 <0>         0.1738
      9 C7         -4.1201   -4.0605    0.9518 C.3       1 <0>        -0.1158
     10 C8         -5.1196   -4.0523    2.0909 C.2       1 <0>         0.3743
     11 O3         -6.3087   -4.1179    1.8640 O.2       1 <0>        -0.3856
     12 N1         -2.4834   -5.8872    0.6383 N.2       1 <0>        -0.3738
     13 C9         -1.5202   -6.7197    1.1189 C.ar      1 <0>         0.3553
     14 C10        -1.8614   -7.8741    1.8699 C.ar      1 <0>        -0.1505
     15 C11        -3.1889   -8.2111    2.1506 C.ar      1 <0>        -0.1659
     16 C12        -3.4594   -9.3360    2.8789 C.ar      1 <0>         0.1323
     17 C13        -2.4197  -10.1550    3.3478 C.ar      1 <0>         0.1695
     18 C14        -1.1144   -9.8483    3.0875 C.ar      1 <0>        -0.1818
     19 C15        -0.8078   -8.7005    2.3422 C.ar      1 <0>         0.1934
     20 N2          0.4545   -8.3568    2.0600 N.ar      1 <0>        -0.5070
     21 C16         0.7122   -7.2759    1.3598 C.ar      1 <0>         0.3204
     22 N3         -0.2307   -6.4776    0.8933 N.ar      1 <0>        -0.5131
     23 O4         -2.7159  -11.2666    4.0701 O.3       1 <0>        -0.2844
     24 C17        -1.6159  -12.0602    4.5198 C.3       1 <0>         0.0529
     25 C18        -2.1421  -13.2601    5.3099 C.3       1 <0>         0.0627
     26 O5         -2.8918  -14.1112    4.4405 O.3       1 <0>        -0.3850
     27 C19        -3.4308  -15.2684    5.0827 C.3       1 <0>         0.0307
     28 O6         -4.7491   -9.6650    3.1525 O.3       1 <0>        -0.2929
     29 C20        -5.7622   -8.7922    2.6485 C.3       1 <0>         0.0212
     30 Cl1        -2.8165   -4.1630    5.4461 Cl        1 <0>         0.0045
     31 H1         -7.3992   -1.0166    5.4694 H         1 <0>         0.0839
     32 H2         -7.8440   -2.7373    5.3708 H         1 <0>         0.0702
     33 H3         -6.5546   -2.2135    6.4805 H         1 <0>         0.0701
     34 H4         -6.4493   -2.0661    3.4335 H         1 <0>         0.0652
     35 H5         -5.1599   -1.5423    4.5433 H         1 <0>         0.0682
     36 H6         -3.7687   -3.0481    0.7526 H         1 <0>         0.1546
     37 H7         -4.5820   -4.4778    0.0571 H         1 <0>         0.1466
     38 H8         -3.9952   -7.5869    1.7947 H         1 <0>         0.1430
     39 H9         -0.3232  -10.4857    3.4538 H         1 <0>         0.1592
     40 H10         1.7434   -7.0310    1.1521 H         1 <0>         0.2043
     41 H11        -1.0467  -12.4128    3.6598 H         1 <0>         0.0796
     42 H12        -0.9713  -11.4581    5.1601 H         1 <0>         0.0859
     43 H13        -1.3030  -13.8162    5.7278 H         1 <0>         0.0763
     44 H14        -2.7843  -12.9098    6.1179 H         1 <0>         0.0642
     45 H15        -3.9854  -15.8620    4.3560 H         1 <0>         0.0886
     46 H16        -2.6183  -15.8661    5.4960 H         1 <0>         0.0426
     47 H17        -4.0997  -14.9597    5.8860 H         1 <0>         0.0438
     48 H18        -6.7432   -9.1694    2.9373 H         1 <0>         0.1105
     49 H19        -5.6205   -7.7939    3.0625 H         1 <0>         0.0550
     50 H20        -5.6956   -8.7476    1.5615 H         1 <0>         0.0607
@<TRIPOS>BOND
     1    1    2 1
     2    1   31 1
     3    1   32 1
     4    1   33 1
     5    2    3 1
     6    2   34 1
     7    2   35 1
     8    3    4 1
     9    4   10 1
    10    4    5 2
    11    5    6 1
    12    5   30 1
    13    6    7 2
    14    6    8 1
    15    8   12 2
    16    8    9 1
    17    9   10 1
    18    9   36 1
    19    9   37 1
    20   10   11 2
    21   12   13 1
    22   13   22 ar
    23   13   14 ar
    24   14   19 ar
    25   14   15 ar
    26   15   16 ar
    27   15   38 1
    28   16   17 ar
    29   16   28 1
    30   17   18 ar
    31   17   23 1
    32   18   19 ar
    33   18   39 1
    34   19   20 ar
    35   20   21 ar
    36   21   22 ar
    37   21   40 1
    38   23   24 1
    39   24   25 1
    40   24   41 1
    41   24   42 1
    42   25   26 1
    43   25   43 1
    44   25   44 1
    45   26   27 1
    46   27   45 1
    47   27   46 1
    48   27   47 1
    49   28   29 1
    50   29   48 1
    51   29   49 1
    52   29   50 1
@<TRIPOS>MOLECULE
CHEMBL459850
   52    55     0     0     0
SMALL
USER_CHARGES

@<TRIPOS>ATOM
      1 C1         -0.0441    1.5022    0.0285 C.3       1 <0>        -0.1132
      2 C2         -0.0168   -0.0045    0.0154 C.ar      1 <0>        -0.0784
      3 C3         -0.0042   -0.6841   -1.1877 C.ar      1 <0>        -0.0940
      4 C4          0.0204   -2.0651   -1.2041 C.ar      1 <0>        -0.1256
      5 C5          0.0328   -2.7754   -0.0098 C.ar      1 <0>         0.1422
      6 C6          0.0206   -2.0959    1.1998 C.ar      1 <0>        -0.0993
      7 C7          0.0012   -0.7084    1.2127 C.ar      1 <0>         0.1714
      8 N1         -0.0054   -0.0193    2.4305 N.am      1 <0>        -0.5708
      9 C8         -1.2793    0.3207    3.0899 C.3       1 <0>         0.1711
     10 C9         -1.1859    1.0639    4.3997 C.ar      1 <0>        -0.3083
     11 C10        -2.3003    1.4371    5.1113 C.ar      1 <0>         0.2393
     12 N2         -2.1347    2.0886    6.2567 N.ar      1 <0>        -0.5842
     13 C11        -0.9212    2.3741    6.7058 C.ar      1 <0>         0.6024
     14 N3          0.1742    2.0286    6.0441 N.ar      1 <0>        -0.5969
     15 C12         0.0822    1.3753    4.8923 C.ar      1 <0>         0.4686
     16 N4          1.2088    1.0013    4.1808 N.am      1 <0>        -0.5369
     17 C13         1.1509    0.3373    3.0189 C.2       1 <0>         0.7163
     18 O1          2.1942    0.0466    2.4666 O.2       1 <0>        -0.5423
     19 C14         2.5251    1.3434    4.7256 C.3       1 <0>         0.0888
     20 N5         -0.7934    3.0550    7.9039 N.pl3     1 <0>        -0.8143
     21 N6          0.0572   -4.1735   -0.0271 N.am      1 <0>        -0.6665
     22 C15         0.7403   -4.8473    0.9194 C.2       1 <0>         0.5597
     23 O2          1.2647   -4.2445    1.8356 O.2       1 <0>        -0.5032
     24 C16         0.8517   -6.3193    0.8435 C.ar      1 <0>        -0.1367
     25 C17         0.2555   -7.0141   -0.2105 C.ar      1 <0>        -0.0542
     26 C18         0.3637   -8.3876   -0.2757 C.ar      1 <0>        -0.1231
     27 C19         1.0613   -9.0769    0.7007 C.ar      1 <0>        -0.0432
     28 C20         1.6545   -8.3946    1.7477 C.ar      1 <0>        -0.1884
     29 C21         1.5584   -7.0201    1.8220 C.ar      1 <0>        -0.0072
     30 C22         2.4122   -9.1535    2.8064 C.3       1 <0>         0.5100
     31 F1          2.3759  -10.5215    2.5155 F         1 <0>        -0.1745
     32 F2          3.7412   -8.7173    2.8317 F         1 <0>        -0.1724
     33 F3          1.8230   -8.9264    4.0548 F         1 <0>        -0.1728
     34 H1          0.9768    1.8841    0.0271 H         1 <0>         0.0730
     35 H2         -0.5685    1.8638   -0.8560 H         1 <0>         0.0719
     36 H3         -0.5603    1.8485    0.9239 H         1 <0>         0.0636
     37 H4         -0.0138   -0.1343   -2.1173 H         1 <0>         0.1359
     38 H5          0.0295   -2.5933   -2.1460 H         1 <0>         0.1324
     39 H6          0.0299   -2.6456    2.1294 H         1 <0>         0.1429
     40 H7         -1.8651    0.9272    2.3991 H         1 <0>         0.0818
     41 H8         -1.8255   -0.6059    3.2662 H         1 <0>         0.0799
     42 H9         -3.2902    1.2057    4.7468 H         1 <0>         0.1789
     43 H10         2.8744    0.5342    5.3668 H         1 <0>         0.0674
     44 H11         3.2303    1.4888    3.9073 H         1 <0>         0.0892
     45 H12         2.4498    2.2617    5.3079 H         1 <0>         0.0918
     46 H13        -1.5848    3.3155    8.4006 H         1 <0>         0.4187
     47 H14         0.0877    3.2718    8.2469 H         1 <0>         0.4163
     48 H15        -0.4175   -4.6583   -0.7202 H         1 <0>         0.4120
     49 H16        -0.2895   -6.4774   -0.9729 H         1 <0>         0.1376
     50 H17        -0.0974   -8.9264   -1.0903 H         1 <0>         0.1465
     51 H18         1.1427  -10.1524    0.6451 H         1 <0>         0.1473
     52 H19         2.0254   -6.4882    2.6376 H         1 <0>         0.1494
@<TRIPOS>BOND
     1    1    2 1
     2    1   34 1
     3    1   35 1
     4    1   36 1
     5    2    7 ar
     6    2    3 ar
     7    3    4 ar
     8    3   37 1
     9    4    5 ar
    10    4   38 1
    11    5    6 ar
    12    5   21 1
    13    6    7 ar
    14    6   39 1
    15    7    8 1
    16    8   17 am
    17    8    9 1
    18    9   10 1
    19    9   40 1
    20    9   41 1
    21   10   15 ar
    22   10   11 ar
    23   11   12 ar
    24   11   42 1
    25   12   13 ar
    26   13   14 ar
    27   13   20 1
    28   14   15 ar
    29   15   16 1
    30   16   17 am
    31   16   19 1
    32   17   18 2
    33   19   43 1
    34   19   44 1
    35   19   45 1
    36   20   46 1
    37   20   47 1
    38   21   22 am
    39   21   48 1
    40   22   23 2
    41   22   24 1
    42   24   29 ar
    43   24   25 ar
    44   25   26 ar
    45   25   49 1
    46   26   27 ar
    47   26   50 1
    48   27   28 ar
    49   27   51 1
    50   28   29 ar
    51   28   30 1
    52   29   52 1
    53   30   31 1
    54   30   32 1
    55   30   33 1
@<TRIPOS>MOLECULE
CHEMBL381648
   53    55     0     0     0
SMALL
USER_CHARGES

@<TRIPOS>ATOM
      1 C1          0.3021    1.2724    0.0414 C.3       1 <0>         0.0307
      2 O1          0.2697   -0.1561    0.0262 O.3       1 <0>        -0.3848
      3 C2          0.8836   -0.7392   -1.1250 C.3       1 <0>         0.0629
      4 C3          0.7910   -2.2637   -1.0353 C.3       1 <0>         0.0530
      5 O2         -0.5800   -2.6621   -1.0953 O.3       1 <0>        -0.2846
      6 C4         -0.8388   -3.9939   -1.0280 C.ar      1 <0>         0.1695
      7 C5          0.1966   -4.8763   -0.9029 C.ar      1 <0>        -0.1820
      8 C6         -0.0696   -6.2511   -0.8333 C.ar      1 <0>         0.1929
      9 C7         -1.4141   -6.7047   -0.8941 C.ar      1 <0>        -0.1492
     10 C8         -2.4546   -5.7805   -1.0222 C.ar      1 <0>        -0.1627
     11 C9         -2.1670   -4.4450   -1.0820 C.ar      1 <0>         0.1336
     12 O3         -3.1778   -3.5448   -1.2011 O.3       1 <0>        -0.2917
     13 C10        -4.5077   -4.0655   -1.2509 C.3       1 <0>         0.0217
     14 C11        -1.6522   -8.1016   -0.8207 C.ar      1 <0>         0.3546
     15 N1         -0.6020   -8.9106   -0.6989 N.ar      1 <0>        -0.5129
     16 C12         0.6300   -8.4376   -0.6468 C.ar      1 <0>         0.3201
     17 N2          0.9090   -7.1558   -0.7101 N.ar      1 <0>        -0.5069
     18 N3         -2.9174   -8.5998   -0.8729 N.2       1 <0>        -0.3733
     19 C13        -3.4759   -8.8402   -2.0254 C.2       1 <0>         0.1752
     20 C14        -4.9327   -9.2582   -2.1453 C.3       1 <0>        -0.1148
     21 C15        -5.5638   -8.3646   -3.1917 C.2       1 <0>         0.3798
     22 C16        -4.8055   -8.0284   -4.4092 C.2       1 <0>         0.0764
     23 C17        -3.4583   -8.1845   -4.4673 C.2       1 <0>        -0.0945
     24 C18        -2.7289   -8.7167   -3.3075 C.2       1 <0>         0.3826
     25 O4         -1.5609   -9.0459   -3.3947 O.2       1 <0>        -0.3617
     26 Cl1        -2.5962   -7.7500   -5.9101 Cl        1 <0>         0.0077
     27 O5         -5.4656   -7.5546   -5.4921 O.3       1 <0>        -0.2882
     28 C19        -6.0842   -6.2727   -5.3653 C.3       1 <0>         0.0212
     29 C20        -5.0658   -5.1799   -5.6965 C.3       1 <0>         0.0348
     30 F1         -4.0417   -5.1926   -4.7435 F         1 <0>        -0.2039
     31 C21        -7.2659   -6.1786   -6.3326 C.3       1 <0>         0.0737
     32 F2         -8.2483   -7.1022   -5.9597 F         1 <0>        -0.1985
     33 O6         -6.6837   -7.9298   -3.0293 O.2       1 <0>        -0.3906
     34 H1          1.3374    1.6126    0.0219 H         1 <0>         0.0426
     35 H2         -0.2233    1.6571   -0.8327 H         1 <0>         0.0435
     36 H3         -0.1833    1.6372    0.9467 H         1 <0>         0.0886
     37 H4          0.3703   -0.3963   -2.0234 H         1 <0>         0.0639
     38 H5          1.9310   -0.4407   -1.1687 H         1 <0>         0.0761
     39 H6          1.3359   -2.7104   -1.8670 H         1 <0>         0.0857
     40 H7          1.2260   -2.5994   -0.0939 H         1 <0>         0.0795
     41 H8          1.2142   -4.5171   -0.8583 H         1 <0>         0.1588
     42 H9         -3.4793   -6.1185   -1.0690 H         1 <0>         0.1421
     43 H10        -4.6055   -4.7308   -2.1087 H         1 <0>         0.0549
     44 H11        -4.7154   -4.6198   -0.3356 H         1 <0>         0.0599
     45 H12        -5.2165   -3.2430   -1.3463 H         1 <0>         0.1085
     46 H13         1.4462   -9.1377   -0.5472 H         1 <0>         0.2041
     47 H14        -4.9961  -10.3003   -2.4587 H         1 <0>         0.1558
     48 H15        -6.4397   -6.1403   -4.3434 H         1 <0>         0.1050
     49 H16        -4.6446   -5.3633   -6.6849 H         1 <0>         0.0947
     50 H17        -5.5594   -4.2081   -5.6865 H         1 <0>         0.1009
     51 H18        -7.6826   -5.1719   -6.3003 H         1 <0>         0.1038
     52 H19        -6.9256   -6.3987   -7.3444 H         1 <0>         0.0938
     53 H20        -5.4375   -9.1265   -1.1883 H         1 <0>         0.1477
@<TRIPOS>BOND
     1    1    2 1
     2    1   34 1
     3    1   35 1
     4    1   36 1
     5    2    3 1
     6    3    4 1
     7    3   37 1
     8    3   38 1
     9    4    5 1
    10    4   39 1
    11    4   40 1
    12    5    6 1
    13    6   11 ar
    14    6    7 ar
    15    7    8 ar
    16    7   41 1
    17    8   17 ar
    18    8    9 ar
    19    9   10 ar
    20    9   14 ar
    21   10   11 ar
    22   10   42 1
    23   11   12 1
    24   12   13 1
    25   13   43 1
    26   13   44 1
    27   13   45 1
    28   14   15 ar
    29   14   18 1
    30   15   16 ar
    31   16   17 ar
    32   16   46 1
    33   18   19 2
    34   19   24 1
    35   19   20 1
    36   20   47 1
    37   20   53 1
    38   20   21 1
    39   21   33 2
    40   21   22 1
    41   22   27 1
    42   22   23 2
    43   23   24 1
    44   23   26 1
    45   24   25 2
    46   27   28 1
    47   28   29 1
    48   28   31 1
    49   28   48 1
    50   29   30 1
    51   29   49 1
    52   29   50 1
    53   31   32 1
    54   31   51 1
    55   31   52 1
@<TRIPOS>MOLECULE
CHEMBL244289
   53    56     0     0     0
SMALL
USER_CHARGES

@<TRIPOS>ATOM
      1 C1         11.4834    2.0934    9.3055 C.3       1 <0>         0.0462
      2 O1         10.1262    2.3385    9.6795 O.3       1 <0>        -0.3322
      3 C2          9.2104    1.4233    9.2973 C.2       1 <0>         0.6413
      4 O2          9.5570    0.4432    8.6631 O.2       1 <0>        -0.6172
      5 N1          7.9234    1.5929    9.6150 N.2       1 <0>        -0.6387
      6 C3          7.0090    0.7477    9.1541 C.2       1 <0>         0.6706
      7 N2          7.2678   -0.3828    8.4431 N.pl3     1 <0>        -0.6098
      8 H1          8.1466   -0.7057    8.1893 H         1 <0>         0.4533
      9 C4          6.0557   -0.9972    8.1429 C.ar      1 <0>         0.0972
     10 C5          5.7281   -2.1550    7.4530 C.ar      1 <0>        -0.1172
     11 C6          4.3993   -2.5215    7.3131 C.ar      1 <0>         0.1040
     12 C7          3.3963   -1.7327    7.8616 C.ar      1 <0>        -0.1027
     13 C8          3.7170   -0.5794    8.5492 C.ar      1 <0>        -0.0784
     14 C9          5.0453   -0.2058    8.6936 C.ar      1 <0>         0.0874
     15 N3          5.6653    0.8718    9.3229 N.pl3     1 <0>        -0.5848
     16 O3          4.0764   -3.6558    6.6368 O.3       1 <0>        -0.2467
     17 C10         4.2817   -4.8478    7.2558 C.ar      1 <0>         0.1389
     18 C11         3.8792   -6.0270    6.6433 C.ar      1 <0>        -0.1517
     19 C12         4.0869   -7.2397    7.2718 C.ar      1 <0>        -0.0598
     20 C13         4.6956   -7.2831    8.5114 C.ar      1 <0>        -0.1460
     21 C14         5.1004   -6.1067    9.1290 C.ar      1 <0>         0.1977
     22 C15         4.8982   -4.8879    8.4966 C.ar      1 <0>        -0.2212
     23 N4          5.7160   -6.1507   10.3848 N.am      1 <0>        -0.6775
     24 C16         6.5279   -7.1788   10.7016 C.2       1 <0>         0.7090
     25 O4          6.8047   -8.0154    9.8638 O.2       1 <0>        -0.5452
     26 N5          7.0331   -7.2795   11.9470 N.am      1 <0>        -0.6741
     27 C17         7.9417   -8.3004   12.2538 C.ar      1 <0>         0.1330
     28 C18         7.9373   -9.4790   11.5207 C.ar      1 <0>        -0.0603
     29 C19         8.8346  -10.4842   11.8255 C.ar      1 <0>        -0.1727
     30 C20         9.7368  -10.3185   12.8602 C.ar      1 <0>        -0.0587
     31 C21         9.7452   -9.1463   13.5935 C.ar      1 <0>        -0.1304
     32 C22         8.8539   -8.1332   13.2898 C.ar      1 <0>         0.1011
     33 F1          8.8656   -6.9856   14.0025 F         1 <0>        -0.1277
     34 C23         8.8296  -11.7638   11.0294 C.3       1 <0>         0.5129
     35 F2          9.6984  -11.6386    9.9400 F         1 <0>        -0.1720
     36 F3          9.2513  -12.8209   11.8431 F         1 <0>        -0.1745
     37 F4          7.5346  -12.0198   10.5661 F         1 <0>        -0.1727
     38 H2         11.5573    2.0411    8.2193 H         1 <0>         0.0595
     39 H3         12.1136    2.9029    9.6740 H         1 <0>         0.1056
     40 H4         11.8147    1.1494    9.7381 H         1 <0>         0.0594
     41 H5          5.2158    1.5884    9.7976 H         1 <0>         0.4503
     42 H6          6.5069   -2.7692    7.0256 H         1 <0>         0.1445
     43 H7          2.3619   -2.0224    7.7496 H         1 <0>         0.1515
     44 H8          2.9345    0.0318    8.9741 H         1 <0>         0.1491
     45 H9          3.4028   -5.9962    5.6745 H         1 <0>         0.1376
     46 H10         3.7726   -8.1555    6.7933 H         1 <0>         0.1391
     47 H11         4.8565   -8.2324    9.0007 H         1 <0>         0.1384
     48 H12         5.2160   -3.9721    8.9727 H         1 <0>         0.1327
     49 H13         5.5585   -5.4413   11.0273 H         1 <0>         0.4110
     50 H14         6.7675   -6.6449   12.6309 H         1 <0>         0.4162
     51 H15         7.2328   -9.6102   10.7128 H         1 <0>         0.1793
     52 H16        10.4365  -11.1067   13.0963 H         1 <0>         0.1501
     53 H17        10.4512   -9.0199   14.4009 H         1 <0>         0.1553
@<TRIPOS>BOND
     1    1    2 1
     2    1   38 1
     3    1   39 1
     4    1   40 1
     5    2    3 1
     6    3    4 2
     7    3    5 1
     8    5    6 2
     9    6   15 1
    10    6    7 1
    11    7    9 1
    12    7    8 1
    13    9   10 ar
    14    9   14 ar
    15   10   11 ar
    16   10   42 1
    17   11   12 ar
    18   11   16 1
    19   12   13 ar
    20   12   43 1
    21   13   14 ar
    22   13   44 1
    23   14   15 1
    24   15   41 1
    25   16   17 1
    26   17   22 ar
    27   17   18 ar
    28   18   19 ar
    29   18   45 1
    30   19   20 ar
    31   19   46 1
    32   20   21 ar
    33   20   47 1
    34   21   22 ar
    35   21   23 1
    36   22   48 1
    37   23   24 am
    38   23   49 1
    39   24   25 2
    40   24   26 am
    41   26   27 1
    42   26   50 1
    43   27   32 ar
    44   27   28 ar
    45   28   29 ar
    46   28   51 1
    47   29   30 ar
    48   29   34 1
    49   30   31 ar
    50   30   52 1
    51   31   32 ar
    52   31   53 1
    53   32   33 1
    54   34   35 1
    55   34   36 1
    56   34   37 1
@<TRIPOS>MOLECULE
CHEMBL244289__1
   53    56     0     0     0
SMALL
USER_CHARGES

@<TRIPOS>ATOM
      1 C1          0.9542  -16.0843    3.3960 C.3       1 <0>         0.0463
      2 O1          0.6248  -15.0996    4.3778 O.3       1 <0>        -0.3323
      3 C2          1.2658  -13.9144    4.2961 C.2       1 <0>         0.6420
      4 O2          2.0829  -13.7236    3.4136 O.2       1 <0>        -0.6179
      5 N1          1.0037  -12.9504    5.1838 N.2       1 <0>        -0.6392
      6 C3          1.7052  -11.8233    5.1664 C.2       1 <0>         0.6709
      7 N2          1.6055  -10.8187    6.0783 N.pl3     1 <0>        -0.5852
      8 H1          1.0136  -10.8056    6.8467 H         1 <0>         0.4499
      9 C4          2.4988   -9.8135    5.7203 C.ar      1 <0>         0.1004
     10 C5          2.8121   -8.5838    6.2804 C.ar      1 <0>        -0.1142
     11 C6          3.7696   -7.7789    5.6846 C.ar      1 <0>         0.1013
     12 C7          4.4152   -8.2005    4.5293 C.ar      1 <0>        -0.0998
     13 C8          4.1070   -9.4235    3.9679 C.ar      1 <0>        -0.0815
     14 C9          3.1494  -10.2352    4.5587 C.ar      1 <0>         0.0845
     15 N3          2.6415  -11.4924    4.2374 N.pl3     1 <0>        -0.6093
     16 O3          4.0776   -6.5731    6.2318 O.3       1 <0>        -0.2460
     17 C10         4.8444   -6.5589    7.3535 C.ar      1 <0>         0.1386
     18 C11         5.2635   -5.3503    7.8931 C.ar      1 <0>        -0.1518
     19 C12         6.0436   -5.3344    9.0333 C.ar      1 <0>        -0.0597
     20 C13         6.4091   -6.5207    9.6402 C.ar      1 <0>        -0.1461
     21 C14         5.9928   -7.7328    9.1048 C.ar      1 <0>         0.1977
     22 C15         5.2039   -7.7508    7.9630 C.ar      1 <0>        -0.2213
     23 N4          6.3637   -8.9342    9.7190 N.am      1 <0>        -0.6776
     24 C16         6.4736   -8.9993   11.0607 C.2       1 <0>         0.7091
     25 O4          6.1551   -8.0452   11.7437 O.2       1 <0>        -0.5452
     26 N5          6.9364  -10.1221   11.6452 N.am      1 <0>        -0.6741
     27 C17         6.9730  -10.2205   13.0419 C.ar      1 <0>         0.1329
     28 C18         7.0553   -9.0728   13.8183 C.ar      1 <0>        -0.0603
     29 C19         7.0912   -9.1729   15.1956 C.ar      1 <0>        -0.1726
     30 C20         7.0457  -10.4146   15.8024 C.ar      1 <0>        -0.0587
     31 C21         6.9637  -11.5608   15.0335 C.ar      1 <0>        -0.1304
     32 C22         6.9211  -11.4678   13.6542 C.ar      1 <0>         0.1012
     33 F1          6.8353  -12.5873   12.9028 F         1 <0>        -0.1277
     34 C23         7.1805   -7.9267   16.0383 C.3       1 <0>         0.5129
     35 F2          5.8915   -7.4732   16.3383 F         1 <0>        -0.1720
     36 F3          7.8618   -8.2146   17.2258 F         1 <0>        -0.1745
     37 F4          7.8713   -6.9354   15.3330 F         1 <0>        -0.1728
     38 H2          2.0163  -16.3207    3.4605 H         1 <0>         0.0592
     39 H3          0.3696  -16.9865    3.5758 H         1 <0>         0.1054
     40 H4          0.7280  -15.6968    2.4026 H         1 <0>         0.0598
     41 H5          2.9082  -12.0367    3.4801 H         1 <0>         0.4538
     42 H6          2.3107   -8.2545    7.1784 H         1 <0>         0.1466
     43 H7          5.1606   -7.5693    4.0684 H         1 <0>         0.1508
     44 H8          4.6107   -9.7480    3.0694 H         1 <0>         0.1472
     45 H9          4.9797   -4.4215    7.4208 H         1 <0>         0.1375
     46 H10         6.3687   -4.3930    9.4509 H         1 <0>         0.1390
     47 H11         7.0193   -6.5055   10.5312 H         1 <0>         0.1383
     48 H12         4.8752   -8.6918    7.5473 H         1 <0>         0.1330
     49 H13         6.5417   -9.7202    9.1790 H         1 <0>         0.4110
     50 H14         7.2443  -10.8619   11.0986 H         1 <0>         0.4162
     51 H15         7.0916   -8.1023   13.3458 H         1 <0>         0.1793
     52 H16         7.0747  -10.4893   16.8794 H         1 <0>         0.1500
     53 H17         6.9284  -12.5292   15.5104 H         1 <0>         0.1553
@<TRIPOS>BOND
     1    1    2 1
     2    1   38 1
     3    1   39 1
     4    1   40 1
     5    2    3 1
     6    3    4 2
     7    3    5 1
     8    5    6 2
     9    6   15 1
    10    6    7 1
    11    7    9 1
    12    7    8 1
    13    9   10 ar
    14    9   14 ar
    15   10   11 ar
    16   10   42 1
    17   11   12 ar
    18   11   16 1
    19   12   13 ar
    20   12   43 1
    21   13   14 ar
    22   13   44 1
    23   14   15 1
    24   15   41 1
    25   16   17 1
    26   17   22 ar
    27   17   18 ar
    28   18   19 ar
    29   18   45 1
    30   19   20 ar
    31   19   46 1
    32   20   21 ar
    33   20   47 1
    34   21   22 ar
    35   21   23 1
    36   22   48 1
    37   23   24 am
    38   23   49 1
    39   24   25 2
    40   24   26 am
    41   26   27 1
    42   26   50 1
    43   27   32 ar
    44   27   28 ar
    45   28   29 ar
    46   28   51 1
    47   29   30 ar
    48   29   34 1
    49   30   31 ar
    50   30   52 1
    51   31   32 ar
    52   31   53 1
    53   32   33 1
    54   34   35 1
    55   34   36 1
    56   34   37 1
@<TRIPOS>MOLECULE
CHEMBL387174
   66    71     0     0     0
SMALL
USER_CHARGES

@<TRIPOS>ATOM
      1 C1          1.4970    1.5103    2.3989 C.3       1 <0>        -0.1513
      2 C2          1.5089   -0.0196    2.3952 C.3       1 <0>        -0.1467
      3 C3          0.7337   -0.5327    1.1801 C.3       1 <0>         0.0967
      4 N1          0.7451   -1.9977    1.1765 N.pl3     1 <0>        -0.4903
      5 C4         -0.1572   -2.7922    1.8398 C.ar      1 <0>         0.1298
      6 C5         -1.2530   -2.4605    2.6352 C.ar      1 <0>        -0.1166
      7 C6         -1.9839   -3.5056    3.1734 C.ar      1 <0>        -0.1065
      8 C7         -1.6532   -4.8346    2.9420 C.ar      1 <0>         0.1299
      9 C8         -0.5636   -5.1878    2.1527 C.ar      1 <0>        -0.0522
     10 C9          0.1795   -4.1438    1.6045 C.ar      1 <0>        -0.0809
     11 C10         1.3626   -4.1350    0.7414 C.ar      1 <0>        -0.0924
     12 C11         1.6627   -2.7806    0.4998 C.ar      1 <0>         0.1808
     13 C12         2.7471   -2.4386   -0.3154 C.ar      1 <0>        -0.1065
     14 C13         3.5165   -3.4096   -0.8773 C.ar      1 <0>         0.0310
     15 C14         3.2287   -4.7661   -0.6396 C.ar      1 <0>        -0.1922
     16 C15         2.1562   -5.1190    0.1750 C.ar      1 <0>        -0.0121
     17 C16         2.1299   -6.6265    0.2214 C.3       1 <0>         0.1386
     18 N2          3.2572   -7.0798   -0.6015 N.am      1 <0>        -0.7246
     19 C17         3.8828   -6.0018   -1.1060 C.2       1 <0>         0.5667
     20 O1          4.8572   -6.0405   -1.8321 O.2       1 <0>        -0.5269
     21 C18         4.6863   -3.0780   -1.7629 C.3       1 <0>        -0.0657
     22 C19         5.1871   -1.6894   -1.5164 C.2       1 <0>        -0.0708
     23 C20         4.4434   -0.7486   -0.9702 C.2       1 <0>        -0.1350
     24 C21         3.0269   -0.9783   -0.5451 C.3       1 <0>        -0.0399
     25 C22         5.0301    0.5827   -0.7692 C.2       1 <0>         0.2084
     26 N3          6.2540    0.8117   -1.1265 N.2       1 <0>        -0.6870
     27 N4         -2.4362   -5.8443    3.5181 N.am      1 <0>        -0.6817
     28 C23        -1.8607   -6.9921    3.9279 C.2       1 <0>         0.7036
     29 O2         -0.6512   -7.1118    3.8939 O.2       1 <0>        -0.5546
     30 N5         -2.6260   -8.0073    4.3754 N.am      1 <0>        -0.6819
     31 C24        -2.0371   -9.2304    4.7151 C.ar      1 <0>         0.1518
     32 C25        -2.7105  -10.4194    4.4679 C.ar      1 <0>        -0.1403
     33 C26        -2.1266  -11.6250    4.8044 C.ar      1 <0>        -0.1026
     34 C27        -0.8728  -11.6487    5.3873 C.ar      1 <0>        -0.0991
     35 C28        -0.1996  -10.4665    5.6347 C.ar      1 <0>        -0.1028
     36 C29        -0.7755   -9.2580    5.2949 C.ar      1 <0>        -0.1134
     37 C30        -0.2390  -12.9659    5.7541 C.3       1 <0>        -0.1150
     38 H1          0.4676    1.8656    2.4481 H         1 <0>         0.0593
     39 H2          2.0493    1.8759    3.2646 H         1 <0>         0.0631
     40 H3          1.9655    1.8795    1.4867 H         1 <0>         0.0581
     41 H4          2.5382   -0.3748    2.3460 H         1 <0>         0.0719
     42 H5          1.0403   -0.3888    3.3075 H         1 <0>         0.0723
     43 H6         -0.2957   -0.1775    1.2293 H         1 <0>         0.0905
     44 H7          1.2022   -0.1635    0.2678 H         1 <0>         0.1025
     45 H8         -1.5203   -1.4312    2.8239 H         1 <0>         0.1368
     46 H9         -2.8389   -3.2803    3.7936 H         1 <0>         0.1294
     47 H10        -0.3056   -6.2211    1.9737 H         1 <0>         0.1449
     48 H11         2.2521   -6.9722    1.2479 H         1 <0>         0.1032
     49 H12         1.1917   -6.9980   -0.1907 H         1 <0>         0.0986
     50 H13         3.5020   -8.0040   -0.7655 H         1 <0>         0.4260
     51 H14         5.4916   -3.7864   -1.5690 H         1 <0>         0.1081
     52 H15         4.3797   -3.1660   -2.8052 H         1 <0>         0.1057
     53 H16         6.2012   -1.4479   -1.7985 H         1 <0>         0.1356
     54 H17         2.3578   -0.6055   -1.3206 H         1 <0>         0.0888
     55 H18         2.8392   -0.4305    0.3784 H         1 <0>         0.0894
     56 H19         4.4412    1.3707   -0.3235 H         1 <0>         0.0900
     57 H20         6.6416    1.6910   -0.9938 H         1 <0>         0.3425
     58 H21        -3.3922   -5.7171    3.6219 H         1 <0>         0.4077
     59 H22        -3.5850   -7.8901    4.4620 H         1 <0>         0.4079
     60 H23        -3.6901  -10.4015    4.0134 H         1 <0>         0.1248
     61 H24        -2.6498  -12.5500    4.6125 H         1 <0>         0.1260
     62 H25         0.7793  -10.4884    6.0904 H         1 <0>         0.1251
     63 H26        -0.2473   -8.3352    5.4843 H         1 <0>         0.1408
     64 H27         0.3456  -13.3349    4.9114 H         1 <0>         0.0702
     65 H28         0.4134  -12.8275    6.6162 H         1 <0>         0.0663
     66 H29        -1.0178  -13.6878    5.9999 H         1 <0>         0.0660
@<TRIPOS>BOND
     1    1    2 1
     2    1   38 1
     3    1   39 1
     4    1   40 1
     5    2    3 1
     6    2   41 1
     7    2   42 1
     8    3    4 1
     9    3   43 1
    10    3   44 1
    11    4   12 1
    12    4    5 1
    13    5   10 ar
    14    5    6 ar
    15    6    7 ar
    16    6   45 1
    17    7    8 ar
    18    7   46 1
    19    8    9 ar
    20    8   27 1
    21    9   10 ar
    22    9   47 1
    23   10   11 1
    24   11   16 ar
    25   11   12 ar
    26   12   13 ar
    27   13   24 1
    28   13   14 ar
    29   14   15 ar
    30   14   21 1
    31   15   19 1
    32   15   16 ar
    33   16   17 1
    34   17   18 1
    35   17   48 1
    36   17   49 1
    37   18   19 am
    38   18   50 1
    39   19   20 2
    40   21   22 1
    41   21   51 1
    42   21   52 1
    43   22   23 2
    44   22   53 1
    45   23   24 1
    46   23   25 1
    47   24   54 1
    48   24   55 1
    49   25   26 2
    50   25   56 1
    51   26   57 1
    52   27   28 am
    53   27   58 1
    54   28   29 2
    55   28   30 am
    56   30   31 1
    57   30   59 1
    58   31   36 ar
    59   31   32 ar
    60   32   33 ar
    61   32   60 1
    62   33   34 ar
    63   33   61 1
    64   34   35 ar
    65   34   37 1
    66   35   36 ar
    67   35   62 1
    68   36   63 1
    69   37   64 1
    70   37   65 1
    71   37   66 1
@<TRIPOS>MOLECULE
CHEMBL258014
   60    65     0     0     0
SMALL
USER_CHARGES

@<TRIPOS>ATOM
      1 C1          1.1467    1.5560   -2.6140 C.3       1 <0>        -0.1521
      2 C2          1.1675    0.0262   -2.6224 C.3       1 <0>        -0.1487
      3 C3          0.7182   -0.4975   -1.2568 C.3       1 <0>         0.0979
      4 N1          0.7381   -1.9623   -1.2648 N.pl3     1 <0>        -0.4918
      5 C4          1.7693   -2.7335   -0.7984 C.ar      1 <0>         0.1619
      6 C5          2.9935   -2.3734   -0.2318 C.ar      1 <0>        -0.1403
      7 C6          3.8360   -3.3869    0.1476 C.ar      1 <0>        -0.0554
      8 C7          3.5031   -4.7335   -0.0178 C.ar      1 <0>        -0.0893
      9 C8          2.2819   -5.1189   -0.5846 C.ar      1 <0>        -0.0106
     10 C9          1.4239   -4.0942   -0.9704 C.ar      1 <0>        -0.1076
     11 C10         0.0924   -4.1146   -1.5826 C.ar      1 <0>        -0.0938
     12 C11        -0.2852   -2.7645   -1.7395 C.ar      1 <0>         0.1832
     13 C12        -1.5277   -2.4492   -2.2844 C.ar      1 <0>        -0.1166
     14 C13        -2.3673   -3.4753   -2.7058 C.ar      1 <0>         0.1274
     15 C14        -2.0067   -4.8229   -2.5349 C.ar      1 <0>        -0.1939
     16 C15        -0.7649   -5.1290   -1.9782 C.ar      1 <0>        -0.0159
     17 C16        -0.6744   -6.6340   -1.9378 C.3       1 <0>         0.1378
     18 N2         -1.9277   -7.1342   -2.5140 N.am      1 <0>        -0.7202
     19 C17        -2.6967   -6.0839   -2.8473 C.2       1 <0>         0.5765
     20 O1         -3.8022   -6.1644   -3.3476 O.2       1 <0>        -0.5333
     21 C18        -3.6264   -3.0902   -3.3808 C.2       1 <0>        -0.2422
     22 C19        -4.7303   -3.7975   -3.6993 C.2       1 <0>         0.1050
     23 N3         -5.5976   -2.9466   -4.2930 N.pl3     1 <0>        -0.3866
     24 N4         -5.0030   -1.6752   -4.3460 N.2       1 <0>        -0.2894
     25 C20        -3.8271   -1.7497   -3.8143 C.2       1 <0>         0.0928
     26 C21        -2.7571   -0.7033   -3.6369 C.3       1 <0>        -0.0322
     27 C22        -1.9492   -1.0086   -2.3781 C.3       1 <0>        -0.0864
     28 C23        -6.9296   -3.2920   -4.7956 C.3       1 <0>         0.1030
     29 C24         4.4585   -5.7718    0.4136 C.2       1 <0>         0.1809
     30 N5          4.1640   -7.0231    0.2668 N.2       1 <0>        -0.3487
     31 O2          5.0810   -8.0195    0.6807 O.3       1 <0>        -0.2408
     32 C25         4.6262   -9.3560    0.4593 C.3       1 <0>         0.0451
     33 C26         5.7774   -5.3748    1.0250 C.3       1 <0>        -0.1510
     34 H1          0.1351    1.9045   -2.4061 H         1 <0>         0.0599
     35 H2          1.8235    1.9243   -1.8430 H         1 <0>         0.0591
     36 H3          1.4668    1.9291   -3.5868 H         1 <0>         0.0641
     37 H4          0.4907   -0.3421   -3.3933 H         1 <0>         0.0750
     38 H5          2.1791   -0.3223   -2.8303 H         1 <0>         0.0729
     39 H6          1.3950   -0.1292   -0.4858 H         1 <0>         0.0947
     40 H7         -0.2934   -0.1490   -1.0489 H         1 <0>         0.1003
     41 H8          3.2665   -1.3371   -0.0978 H         1 <0>         0.1377
     42 H9          4.7892   -3.1354    0.5887 H         1 <0>         0.1348
     43 H10         2.0196   -6.1583   -0.7152 H         1 <0>         0.1423
     44 H11         0.1736   -6.9746   -2.5319 H         1 <0>         0.1023
     45 H12        -0.5726   -6.9759   -0.9078 H         1 <0>         0.1020
     46 H13        -2.1666   -8.0678   -2.6244 H         1 <0>         0.4271
     47 H14        -4.8914   -4.8493   -3.5145 H         1 <0>         0.2196
     48 H15        -2.0958   -0.7095   -4.5033 H         1 <0>         0.0877
     49 H16        -3.2213    0.2783   -3.5414 H         1 <0>         0.0900
     50 H17        -2.5537   -0.7626   -1.5051 H         1 <0>         0.0796
     51 H18        -1.0578   -0.3813   -2.3727 H         1 <0>         0.0946
     52 H19        -7.6648   -3.1505   -4.0034 H         1 <0>         0.0748
     53 H20        -7.1773   -2.6490   -5.6402 H         1 <0>         0.0888
     54 H21        -6.9379   -4.3334   -5.1171 H         1 <0>         0.0901
     55 H22         3.7009   -9.5211    1.0114 H         1 <0>         0.0489
     56 H23         4.4461   -9.5069   -0.6051 H         1 <0>         0.0488
     57 H24         5.3846  -10.0595    0.8028 H         1 <0>         0.0953
     58 H25         5.6652   -5.2873    2.1057 H         1 <0>         0.0846
     59 H26         6.5263   -6.1335    0.7978 H         1 <0>         0.0800
     60 H27         6.0947   -4.4164    0.6139 H         1 <0>         0.0801
@<TRIPOS>BOND
     1    1    2 1
     2    1   34 1
     3    1   35 1
     4    1   36 1
     5    2    3 1
     6    2   37 1
     7    2   38 1
     8    3    4 1
     9    3   39 1
    10    3   40 1
    11    4   12 1
    12    4    5 1
    13    5   10 ar
    14    5    6 ar
    15    6    7 ar
    16    6   41 1
    17    7    8 ar
    18    7   42 1
    19    8    9 ar
    20    8   29 1
    21    9   10 ar
    22    9   43 1
    23   10   11 1
    24   11   16 ar
    25   11   12 ar
    26   12   13 ar
    27   13   27 1
    28   13   14 ar
    29   14   15 ar
    30   14   21 1
    31   15   19 1
    32   15   16 ar
    33   16   17 1
    34   17   18 1
    35   17   44 1
    36   17   45 1
    37   18   19 am
    38   18   46 1
    39   19   20 2
    40   21   25 1
    41   21   22 2
    42   22   23 1
    43   22   47 1
    44   23   24 1
    45   23   28 1
    46   24   25 2
    47   25   26 1
    48   26   27 1
    49   26   48 1
    50   26   49 1
    51   27   50 1
    52   27   51 1
    53   28   52 1
    54   28   53 1
    55   28   54 1
    56   29   30 2
    57   29   33 1
    58   30   31 1
    59   31   32 1
    60   32   55 1
    61   32   56 1
    62   32   57 1
    63   33   58 1
    64   33   59 1
    65   33   60 1
@<TRIPOS>MOLECULE
CHEMBL243910
   52    55     0     0     0
SMALL
USER_CHARGES

@<TRIPOS>ATOM
      1 C1         -0.2200   -6.2747   -5.2154 C.3       1 <0>         0.0465
      2 O1         -0.1521   -5.7861   -3.8743 O.3       1 <0>        -0.3331
      3 C2         -1.3235   -5.5141   -3.2611 C.2       1 <0>         0.6412
      4 O2         -2.3744   -5.6878   -3.8512 O.2       1 <0>        -0.6186
      5 N1         -1.3299   -5.0541   -2.0063 N.2       1 <0>        -0.6411
      6 C3         -2.4736   -4.6909   -1.4382 C.2       1 <0>         0.6706
      7 N2         -3.7090   -4.8394   -1.9884 N.pl3     1 <0>        -0.6089
      8 H1         -3.9014   -5.2262   -2.8569 H         1 <0>         0.4526
      9 C4         -4.6493   -4.3412   -1.0916 C.ar      1 <0>         0.0961
     10 C5         -6.0320   -4.2396   -1.1310 C.ar      1 <0>        -0.0918
     11 C6         -6.7132   -3.6831   -0.0605 C.ar      1 <0>         0.1128
     12 C7         -6.0148   -3.2276    1.0504 C.ar      1 <0>        -0.0991
     13 C8         -4.6386   -3.3264    1.0946 C.ar      1 <0>        -0.0815
     14 C9         -3.9494   -3.8824    0.0266 C.ar      1 <0>         0.0884
     15 N3         -2.5967   -4.1169   -0.2116 N.pl3     1 <0>        -0.5847
     16 O3         -8.0684   -3.5823   -0.0976 O.3       1 <0>        -0.2393
     17 C10        -8.7969   -4.7118    0.0924 C.ar      1 <0>         0.3006
     18 C11       -10.1822   -4.6320    0.1595 C.ar      1 <0>        -0.1559
     19 C12       -10.9158   -5.7885    0.3534 C.ar      1 <0>        -0.0390
     20 C13       -10.2309   -6.9962    0.4745 C.ar      1 <0>         0.0800
     21 C14        -8.8464   -6.9984    0.3972 C.ar      1 <0>         0.1236
     22 N4         -8.1800   -5.8758    0.2061 N.ar      1 <0>        -0.5063
     23 N5        -10.9325   -8.1934    0.6724 N.am      1 <0>        -0.6701
     24 C15       -12.1367   -8.3722    0.0941 C.2       1 <0>         0.7091
     25 O4        -12.5705   -7.5384   -0.6773 O.2       1 <0>        -0.5504
     26 N6        -12.8601   -9.4752    0.3708 N.am      1 <0>        -0.6727
     27 C16       -14.0727   -9.7021   -0.2923 C.ar      1 <0>         0.1324
     28 C17       -14.7962   -8.6337   -0.8041 C.ar      1 <0>        -0.0603
     29 C18       -15.9920   -8.8604   -1.4577 C.ar      1 <0>        -0.1727
     30 C19       -16.4696  -10.1499   -1.6030 C.ar      1 <0>        -0.0583
     31 C20       -15.7526  -11.2175   -1.0950 C.ar      1 <0>        -0.1304
     32 C21       -14.5518  -10.9985   -0.4446 C.ar      1 <0>         0.1020
     33 F1        -13.8481  -12.0419    0.0465 F         1 <0>        -0.1273
     34 C22       -16.7775   -7.7003   -2.0127 C.3       1 <0>         0.5128
     35 F2        -16.3742   -7.4512   -3.3290 F         1 <0>        -0.1721
     36 F3        -18.1419   -8.0092   -1.9936 F         1 <0>        -0.1744
     37 F4        -16.5458   -6.5635   -1.2309 F         1 <0>        -0.1729
     38 H2          0.7885   -6.4523   -5.5889 H         1 <0>         0.1048
     39 H3         -0.7839   -7.2073   -5.2342 H         1 <0>         0.0590
     40 H4         -0.7164   -5.5372   -5.8461 H         1 <0>         0.0589
     41 H5         -1.8680   -3.9052    0.3926 H         1 <0>         0.4494
     42 H6         -6.5764   -4.5930   -1.9942 H         1 <0>         0.1389
     43 H7         -6.5502   -2.7943    1.8823 H         1 <0>         0.1474
     44 H8         -4.0988   -2.9709    1.9598 H         1 <0>         0.1470
     45 H9        -10.6802   -3.6787    0.0619 H         1 <0>         0.1519
     46 H10       -11.9939   -5.7563    0.4099 H         1 <0>         0.1556
     47 H11        -8.3079   -7.9299    0.4905 H         1 <0>         0.1638
     48 H12       -10.5515   -8.8931    1.2256 H         1 <0>         0.4139
     49 H13       -12.5408  -10.1120    1.0293 H         1 <0>         0.4172
     50 H14       -14.4247   -7.6260   -0.6910 H         1 <0>         0.1790
     51 H15       -17.4049  -10.3236   -2.1142 H         1 <0>         0.1500
     52 H16       -16.1284  -12.2235   -1.2099 H         1 <0>         0.1555
@<TRIPOS>BOND
     1    1    2 1
     2    1   38 1
     3    1   39 1
     4    1   40 1
     5    2    3 1
     6    3    4 2
     7    3    5 1
     8    5    6 2
     9    6   15 1
    10    6    7 1
    11    7    9 1
    12    7    8 1
    13    9   10 ar
    14    9   14 ar
    15   10   11 ar
    16   10   42 1
    17   11   12 ar
    18   11   16 1
    19   12   13 ar
    20   12   43 1
    21   13   14 ar
    22   13   44 1
    23   14   15 1
    24   15   41 1
    25   16   17 1
    26   17   22 ar
    27   17   18 ar
    28   18   19 ar
    29   18   45 1
    30   19   20 ar
    31   19   46 1
    32   20   21 ar
    33   20   23 1
    34   21   22 ar
    35   21   47 1
    36   23   24 am
    37   23   48 1
    38   24   25 2
    39   24   26 am
    40   26   27 1
    41   26   49 1
    42   27   32 ar
    43   27   28 ar
    44   28   29 ar
    45   28   50 1
    46   29   30 ar
    47   29   34 1
    48   30   31 ar
    49   30   51 1
    50   31   32 ar
    51   31   52 1
    52   32   33 1
    53   34   35 1
    54   34   36 1
    55   34   37 1
@<TRIPOS>MOLECULE
CHEMBL243910__1
   52    55     0     0     0
SMALL
USER_CHARGES

@<TRIPOS>ATOM
      1 C1         -1.7284    2.5475    1.2046 C.3       1 <0>         0.0466
      2 O1         -2.5786    1.6929    1.9720 O.3       1 <0>        -0.3331
      3 C2         -3.0200    0.5676    1.3711 C.2       1 <0>         0.6417
      4 O2         -2.6906    0.3200    0.2252 O.2       1 <0>        -0.6191
      5 N1         -3.8185   -0.2746    2.0337 N.2       1 <0>        -0.6414
      6 C3         -4.3345   -1.3281    1.4118 C.2       1 <0>         0.6709
      7 N2         -5.2393   -2.1930    1.9448 N.pl3     1 <0>        -0.5845
      8 H1         -5.6139   -2.1441    2.8382 H         1 <0>         0.4490
      9 C4         -5.5351   -3.1598    0.9886 C.ar      1 <0>         0.0994
     10 C5         -6.3757   -4.2631    0.9886 C.ar      1 <0>        -0.0890
     11 C6         -6.4643   -5.0622   -0.1397 C.ar      1 <0>         0.1102
     12 C7         -5.7140   -4.7609   -1.2691 C.ar      1 <0>        -0.0963
     13 C8         -4.8759   -3.6640   -1.2742 C.ar      1 <0>        -0.0845
     14 C9         -4.7817   -2.8590   -0.1482 C.ar      1 <0>         0.0856
     15 N3         -4.0468   -1.7105    0.1389 N.pl3     1 <0>        -0.6091
     16 O3         -7.2874   -6.1443   -0.1414 O.3       1 <0>        -0.2386
     17 C10        -8.6231   -5.9288   -0.2521 C.ar      1 <0>         0.3004
     18 C11        -9.4868   -7.0119   -0.3565 C.ar      1 <0>        -0.1558
     19 C12       -10.8461   -6.7821   -0.4689 C.ar      1 <0>        -0.0391
     20 C13       -11.2981   -5.4637   -0.4729 C.ar      1 <0>         0.0801
     21 C14       -10.3765   -4.4334   -0.3649 C.ar      1 <0>         0.1234
     22 N4         -9.0872   -4.6907   -0.2539 N.ar      1 <0>        -0.5063
     23 N5        -12.6667   -5.1830   -0.5852 N.am      1 <0>        -0.6702
     24 C15       -13.5721   -6.0065   -0.0209 C.2       1 <0>         0.7092
     25 O4        -13.2011   -6.9373    0.6680 O.2       1 <0>        -0.5506
     26 N6        -14.8887   -5.7984   -0.2200 N.am      1 <0>        -0.6727
     27 C16       -15.8315   -6.6026    0.4329 C.ar      1 <0>         0.1323
     28 C17       -15.4904   -7.8859    0.8371 C.ar      1 <0>        -0.0603
     29 C18       -16.4223   -8.6769    1.4808 C.ar      1 <0>        -0.1727
     30 C19       -17.6945   -8.1924    1.7232 C.ar      1 <0>        -0.0582
     31 C20       -18.0392   -6.9147    1.3225 C.ar      1 <0>        -0.1304
     32 C21       -17.1096   -6.1152    0.6826 C.ar      1 <0>         0.1020
     33 F1        -17.4443   -4.8646    0.2964 F         1 <0>        -0.1273
     34 C22       -16.0518  -10.0703    1.9192 C.3       1 <0>         0.5128
     35 F2        -15.5349  -10.0285    3.2185 F         1 <0>        -0.1720
     36 F3        -17.1893  -10.8844    1.8958 F         1 <0>        -0.1744
     37 F4        -15.0873  -10.5917    1.0501 F         1 <0>        -0.1730
     38 H2         -1.4466    3.4131    1.8042 H         1 <0>         0.1046
     39 H3         -0.8320    2.0007    0.9122 H         1 <0>         0.0593
     40 H4         -2.2581    2.8806    0.3121 H         1 <0>         0.0588
     41 H5         -3.4339   -1.2621   -0.4646 H         1 <0>         0.4530
     42 H6         -6.9595   -4.4989    1.8661 H         1 <0>         0.1410
     43 H7         -5.7863   -5.3871   -2.1461 H         1 <0>         0.1466
     44 H8         -4.2936   -3.4329   -2.1540 H         1 <0>         0.1451
     45 H9         -9.1016   -8.0208   -0.3503 H         1 <0>         0.1518
     46 H10       -11.5408   -7.6049   -0.5518 H         1 <0>         0.1555
     47 H11       -10.7183   -3.4089   -0.3677 H         1 <0>         0.1639
     48 H12       -12.9623   -4.3960   -1.0692 H         1 <0>         0.4140
     49 H13       -15.1834   -5.0916   -0.8155 H         1 <0>         0.4172
     50 H14       -14.4973   -8.2658    0.6482 H         1 <0>         0.1790
     51 H15       -18.4208   -8.8136    2.2263 H         1 <0>         0.1500
     52 H16       -19.0338   -6.5394    1.5129 H         1 <0>         0.1554
@<TRIPOS>BOND
     1    1    2 1
     2    1   38 1
     3    1   39 1
     4    1   40 1
     5    2    3 1
     6    3    4 2
     7    3    5 1
     8    5    6 2
     9    6   15 1
    10    6    7 1
    11    7    9 1
    12    7    8 1
    13    9   10 ar
    14    9   14 ar
    15   10   11 ar
    16   10   42 1
    17   11   12 ar
    18   11   16 1
    19   12   13 ar
    20   12   43 1
    21   13   14 ar
    22   13   44 1
    23   14   15 1
    24   15   41 1
    25   16   17 1
    26   17   22 ar
    27   17   18 ar
    28   18   19 ar
    29   18   45 1
    30   19   20 ar
    31   19   46 1
    32   20   21 ar
    33   20   23 1
    34   21   22 ar
    35   21   47 1
    36   23   24 am
    37   23   48 1
    38   24   25 2
    39   24   26 am
    40   26   27 1
    41   26   49 1
    42   27   32 ar
    43   27   28 ar
    44   28   29 ar
    45   28   50 1
    46   29   30 ar
    47   29   34 1
    48   30   31 ar
    49   30   51 1
    50   31   32 ar
    51   31   52 1
    52   32   33 1
    53   34   35 1
    54   34   36 1
    55   34   37 1
@<TRIPOS>MOLECULE
CHEMBL193609
   50    53     0     0     0
SMALL
USER_CHARGES

@<TRIPOS>ATOM
      1 C1         -0.1832    1.2177    0.8003 C.3       1 <0>        -0.1503
      2 C2         -0.0653   -0.2899    0.5677 C.3       1 <0>        -0.6102
      3 S1          0.6432   -0.5948   -1.0741 S.o2      1 <0>         2.4974
      4 O1         -0.2715   -0.1925   -2.0844 O.2       1 <0>        -0.9256
      5 O2          1.9973   -0.1653   -1.1103 O.2       1 <0>        -0.9376
      6 C3          0.7241   -2.3494   -1.2137 C.ar      1 <0>        -0.6678
      7 C4          1.8547   -3.0235   -0.7903 C.ar      1 <0>        -0.0083
      8 C5          1.9243   -4.4002   -0.8977 C.ar      1 <0>        -0.2003
      9 C6          0.8597   -5.1084   -1.4306 C.ar      1 <0>         0.1458
     10 C7         -0.2801   -4.4300   -1.8570 C.ar      1 <0>         0.1288
     11 C8         -0.3448   -3.0489   -1.7409 C.ar      1 <0>        -0.0390
     12 N1         -1.3593   -5.1406   -2.3964 N.pl3     1 <0>        -0.6055
     13 C9         -2.4296   -4.4609   -2.9414 C.2       1 <0>         0.4509
     14 N2         -2.5143   -3.1592   -3.0852 N.2       1 <0>        -0.5138
     15 C10        -3.6949   -2.8619   -3.6504 C.2       1 <0>         0.0246
     16 C11        -4.3560   -4.0278   -3.8595 C.2       1 <0>        -0.0336
     17 O3         -3.5522   -5.0236   -3.4167 O.3       1 <0>        -0.2081
     18 C12        -5.6964   -4.1822   -4.4611 C.ar      1 <0>         0.0052
     19 C13        -6.4083   -3.0564   -4.8840 C.ar      1 <0>        -0.0950
     20 C14        -7.6608   -3.1994   -5.4462 C.ar      1 <0>        -0.1035
     21 C15        -8.2191   -4.4539   -5.5948 C.ar      1 <0>        -0.0945
     22 C16        -7.5190   -5.5874   -5.1761 C.ar      1 <0>         0.0010
     23 C17        -6.2517   -5.4515   -4.6134 C.ar      1 <0>        -0.0949
     24 C18        -8.1189   -6.9294   -5.3351 C.2       1 <0>        -0.1117
     25 C19        -9.3321   -7.2744   -5.8675 C.2       1 <0>        -0.1452
     26 C20        -9.6816   -8.6064   -5.9112 C.2       1 <0>        -0.1556
     27 C21        -8.8160   -9.5336   -5.4270 C.2       1 <0>        -0.1719
     28 S2         -7.4464   -8.5222   -4.8901 S.3       1 <0>         0.0552
     29 O4          0.9271   -6.4624   -1.5376 O.3       1 <0>        -0.3178
     30 C22         2.1266   -7.0904   -1.0807 C.3       1 <0>         0.0255
     31 H1          0.8054    1.6729    0.7410 H         1 <0>         0.0742
     32 H2         -0.8301    1.6534    0.0388 H         1 <0>         0.0752
     33 H3         -0.6089    1.4009    1.7869 H         1 <0>         0.0844
     34 H4          0.5816   -0.7255    1.3292 H         1 <0>         0.1340
     35 H5         -1.0539   -0.7451    0.6270 H         1 <0>         0.1352
     36 H6          2.6859   -2.4730   -0.3750 H         1 <0>         0.1471
     37 H7          2.8090   -4.9236   -0.5664 H         1 <0>         0.1457
     38 H8         -1.2286   -2.5203   -2.0664 H         1 <0>         0.2063
     39 H9         -1.3547   -6.1105   -2.3870 H         1 <0>         0.4327
     40 H10        -4.0537   -1.8729   -3.8946 H         1 <0>         0.1954
     41 H11        -5.9777   -2.0725   -4.7704 H         1 <0>         0.1356
     42 H12        -8.2070   -2.3261   -5.7711 H         1 <0>         0.1379
     43 H13        -9.1995   -4.5585   -6.0355 H         1 <0>         0.1311
     44 H14        -5.7039   -6.3253   -4.2928 H         1 <0>         0.1276
     45 H15       -10.0026   -6.5169   -6.2457 H         1 <0>         0.1365
     46 H16       -10.6321   -8.9091   -6.3250 H         1 <0>         0.1375
     47 H17        -8.9258  -10.6070   -5.3825 H         1 <0>         0.1883
     48 H18         2.9753   -6.7092   -1.6485 H         1 <0>         0.0626
     49 H19         2.2703   -6.8728   -0.0224 H         1 <0>         0.0621
     50 H20         2.0492   -8.1684   -1.2227 H         1 <0>         0.1067
@<TRIPOS>BOND
     1    1    2 1
     2    1   31 1
     3    1   32 1
     4    1   33 1
     5    2    3 1
     6    2   34 1
     7    2   35 1
     8    3    4 2
     9    3    5 2
    10    3    6 1
    11    6   11 ar
    12    6    7 ar
    13    7    8 ar
    14    7   36 1
    15    8    9 ar
    16    8   37 1
    17    9   10 ar
    18    9   29 1
    19   10   11 ar
    20   10   12 1
    21   11   38 1
    22   12   13 1
    23   12   39 1
    24   13   17 1
    25   13   14 2
    26   14   15 1
    27   15   16 2
    28   15   40 1
    29   16   17 1
    30   16   18 1
    31   18   23 ar
    32   18   19 ar
    33   19   20 ar
    34   19   41 1
    35   20   21 ar
    36   20   42 1
    37   21   22 ar
    38   21   43 1
    39   22   23 ar
    40   22   24 1
    41   23   44 1
    42   24   28 1
    43   24   25 2
    44   25   26 1
    45   25   45 1
    46   26   27 2
    47   26   46 1
    48   27   28 1
    49   27   47 1
    50   29   30 1
    51   30   48 1
    52   30   49 1
    53   30   50 1
@<TRIPOS>MOLECULE
CHEMBL249192
   55    58     0     0     0
SMALL
USER_CHARGES

@<TRIPOS>ATOM
      1 C1         -0.8273  -12.8818   -5.0441 C.3       1 <0>        -0.1528
      2 C2         -0.6558  -11.7130   -4.0717 C.3       1 <0>         0.0621
      3 O1         -1.9399  -11.1954   -3.7178 O.3       1 <0>        -0.3521
      4 C3         -1.9654  -10.1547   -2.8620 C.2       1 <0>         0.5389
      5 O2         -0.9256   -9.6991   -2.4282 O.2       1 <0>        -0.5011
      6 C4         -3.2534   -9.5694   -2.4526 C.2       1 <0>        -0.2282
      7 C5         -3.4623   -8.4388   -1.5409 C.2       1 <0>        -0.1359
      8 C6         -4.8050   -8.2641   -1.4694 C.2       1 <0>         0.0340
      9 O3         -5.4050   -9.1815   -2.2500 O.3       1 <0>        -0.1606
     10 C7         -4.5009   -9.9630   -2.8478 C.2       1 <0>         0.0668
     11 C8         -5.4969   -7.2345   -0.6647 C.ar      1 <0>        -0.0007
     12 C9         -4.7580   -6.3330    0.1039 C.ar      1 <0>        -0.1091
     13 C10        -5.4060   -5.3731    0.8541 C.ar      1 <0>        -0.0919
     14 C11        -6.7866   -5.3002    0.8483 C.ar      1 <0>        -0.1344
     15 C12        -7.5310   -6.1932    0.0869 C.ar      1 <0>         0.1496
     16 C13        -6.8890   -7.1571   -0.6754 C.ar      1 <0>        -0.1004
     17 N1         -8.9275   -6.1160    0.0851 N.am      1 <0>        -0.6671
     18 C14        -9.6644   -7.2378   -0.0371 C.2       1 <0>         0.5795
     19 O4         -9.1192   -8.3248   -0.0515 O.2       1 <0>        -0.5265
     20 C15       -11.1310   -7.1473   -0.1533 C.ar      1 <0>        -0.2750
     21 C16       -11.7621   -5.9023   -0.2592 C.ar      1 <0>         0.0074
     22 C17       -13.1410   -5.8714   -0.3659 C.ar      1 <0>        -0.2460
     23 C18       -13.8515   -7.0588   -0.3651 C.ar      1 <0>         0.1909
     24 N2        -13.2386   -8.2219   -0.2644 N.ar      1 <0>        -0.5470
     25 C19       -11.9209   -8.3095   -0.1657 C.ar      1 <0>         0.4598
     26 N3        -11.3196   -9.5508   -0.0685 N.pl3     1 <0>        -0.6961
     27 C20       -12.1435  -10.7575    0.0381 C.3       1 <0>         0.1646
     28 C21       -11.2512  -11.9685    0.1302 C.ar      1 <0>        -0.0642
     29 C22       -10.8366  -12.6332   -1.0137 C.ar      1 <0>        -0.1529
     30 C23       -10.0185  -13.7402   -0.8902 C.ar      1 <0>         0.0990
     31 N4         -9.6332  -14.1651    0.2972 N.ar      1 <0>        -0.4789
     32 C24       -10.0079  -13.5578    1.4062 C.ar      1 <0>         0.0991
     33 C25       -10.8206  -12.4409    1.3606 C.ar      1 <0>        -0.1529
     34 H1          0.1522  -13.2766   -5.3140 H         1 <0>         0.0817
     35 H2         -1.4168  -13.6660   -4.5692 H         1 <0>         0.0676
     36 H3         -1.3394  -12.5354   -5.9418 H         1 <0>         0.0673
     37 H4         -0.1436  -12.0594   -3.1741 H         1 <0>         0.0698
     38 H5         -0.0662  -10.9288   -4.5467 H         1 <0>         0.0696
     39 H6         -2.7029   -7.8644   -1.0313 H         1 <0>         0.1670
     40 H7         -4.7198  -10.7726   -3.5282 H         1 <0>         0.2247
     41 H8         -3.6794   -6.3871    0.1116 H         1 <0>         0.1330
     42 H9         -4.8328   -4.6766    1.4480 H         1 <0>         0.1372
     43 H10        -7.2882   -4.5470    1.4377 H         1 <0>         0.1315
     44 H11        -7.4655   -7.8490   -1.2716 H         1 <0>         0.1422
     45 H12        -9.3658   -5.2550    0.1719 H         1 <0>         0.4130
     46 H13       -11.1867   -4.9883   -0.2573 H         1 <0>         0.1354
     47 H14       -13.6591   -4.9274   -0.4489 H         1 <0>         0.1409
     48 H15       -14.9279   -7.0324   -0.4482 H         1 <0>         0.1639
     49 H16       -10.3523   -9.6227   -0.0710 H         1 <0>         0.4271
     50 H17       -12.7650  -10.6954    0.9314 H         1 <0>         0.0791
     51 H18       -12.7804  -10.8416   -0.8424 H         1 <0>         0.0820
     52 H19       -11.1494  -12.2905   -1.9890 H         1 <0>         0.1364
     53 H20        -9.6912  -14.2636   -1.7764 H         1 <0>         0.1584
     54 H21        -9.6724  -13.9352    2.3609 H         1 <0>         0.1582
     55 H22       -11.1201  -11.9449    2.2720 H         1 <0>         0.1359
@<TRIPOS>BOND
     1    1    2 1
     2    1   34 1
     3    1   35 1
     4    1   36 1
     5    2    3 1
     6    2   37 1
     7    2   38 1
     8    3    4 1
     9    4    5 2
    10    4    6 1
    11    6   10 2
    12    6    7 1
    13    7    8 2
    14    7   39 1
    15    8    9 1
    16    8   11 1
    17    9   10 1
    18   10   40 1
    19   11   16 ar
    20   11   12 ar
    21   12   13 ar
    22   12   41 1
    23   13   14 ar
    24   13   42 1
    25   14   15 ar
    26   14   43 1
    27   15   16 ar
    28   15   17 1
    29   16   44 1
    30   17   18 am
    31   17   45 1
    32   18   19 2
    33   18   20 1
    34   20   25 ar
    35   20   21 ar
    36   21   22 ar
    37   21   46 1
    38   22   23 ar
    39   22   47 1
    40   23   24 ar
    41   23   48 1
    42   24   25 ar
    43   25   26 1
    44   26   27 1
    45   26   49 1
    46   27   28 1
    47   27   50 1
    48   27   51 1
    49   28   33 ar
    50   28   29 ar
    51   29   30 ar
    52   29   52 1
    53   30   31 ar
    54   30   53 1
    55   31   32 ar
    56   32   33 ar
    57   32   54 1
    58   33   55 1
@<TRIPOS>MOLECULE
CHEMBL427226
   68    72     0     0     0
SMALL
USER_CHARGES

@<TRIPOS>ATOM
      1 C1         -1.4630    1.4155   -1.1325 C.3       1 <0>        -0.1284
      2 C2         -1.2439   -0.0689   -0.9931 C.ar      1 <0>        -0.0363
      3 C3         -1.2535   -0.8751   -2.1150 C.ar      1 <0>        -0.1235
      4 C4         -1.0531   -2.2355   -1.9961 C.ar      1 <0>        -0.0800
      5 C5         -0.8393   -2.8048   -0.7387 C.ar      1 <0>        -0.1468
      6 C6         -0.8288   -1.9956    0.3960 C.ar      1 <0>        -0.0384
      7 C7         -1.0262   -0.6244    0.2672 C.ar      1 <0>        -0.0488
      8 C8         -1.0104    0.2447    1.4695 C.ar      1 <0>        -0.0806
      9 C9         -0.2244    1.4078    1.4775 C.ar      1 <0>        -0.0521
     10 C10        -0.1917    2.2223    2.5655 C.ar      1 <0>        -0.1192
     11 C11        -0.9517    1.9032    3.7018 C.ar      1 <0>         0.2191
     12 C12        -1.7497    0.7294    3.7038 C.ar      1 <0>        -0.2165
     13 C13        -1.7748   -0.0948    2.5716 C.ar      1 <0>        -0.0343
     14 C14        -2.5023    0.4336    4.8565 C.ar      1 <0>         0.2445
     15 N1         -2.4326    1.2581    5.8805 N.ar      1 <0>        -0.5576
     16 C15        -1.6731    2.3512    5.8442 C.ar      1 <0>         0.5708
     17 N2         -0.9472    2.6789    4.7928 N.ar      1 <0>        -0.5743
     18 N3         -1.6441    3.1763    6.9538 N.pl3     1 <0>        -0.6989
     19 C16        -2.4390    2.8401    8.1376 C.3       1 <0>         0.1028
     20 C17        -0.6252   -4.2620   -0.6117 C.2       1 <0>         0.5650
     21 O1         -0.4393   -4.7559    0.4835 O.2       1 <0>        -0.5145
     22 N4         -0.6362   -5.0430   -1.7100 N.am      1 <0>        -0.6723
     23 C18        -0.3344   -6.4063   -1.6028 C.ar      1 <0>         0.1234
     24 C19         0.3741   -7.0424   -2.6136 C.ar      1 <0>        -0.1045
     25 C20         0.6718   -8.3866   -2.5070 C.ar      1 <0>        -0.1915
     26 C21         0.2628   -9.1015   -1.3907 C.ar      1 <0>         0.1021
     27 C22        -0.4454   -8.4668   -0.3808 C.ar      1 <0>        -0.1221
     28 C23        -0.7384   -7.1213   -0.4831 C.ar      1 <0>        -0.0755
     29 O2          0.5559  -10.4252   -1.2867 O.3       1 <0>        -0.2981
     30 C24         1.3852  -10.9881   -2.3053 C.3       1 <0>         0.0752
     31 C25         0.5199  -11.4033   -3.4986 C.3       1 <0>        -0.1785
     32 C26         1.4024  -12.0771   -4.5516 C.3       1 <0>        -0.0027
     33 N5          2.0418  -13.2645   -3.9723 N.4       1 <0>        -0.3875
     34 C27         2.9290  -12.8660   -2.8729 C.3       1 <0>        -0.0015
     35 C28         2.1052  -12.2227   -1.7553 C.3       1 <0>        -0.1456
     36 C29         2.8256  -13.9511   -5.0077 C.3       1 <0>        -0.0477
     37 H1         -0.5040    1.9122   -1.2798 H         1 <0>         0.0804
     38 H2         -2.1076    1.6087   -1.9900 H         1 <0>         0.0733
     39 H3         -1.9360    1.7995   -0.2287 H         1 <0>         0.0769
     40 H4         -1.4188   -0.4391   -3.0891 H         1 <0>         0.1347
     41 H5         -1.0621   -2.8608   -2.8766 H         1 <0>         0.1252
     42 H6         -0.6642   -2.4305    1.3707 H         1 <0>         0.1403
     43 H7          0.3630    1.6591    0.6068 H         1 <0>         0.1338
     44 H8          0.4184    3.1133    2.5557 H         1 <0>         0.1403
     45 H9         -2.3814   -0.9883    2.5605 H         1 <0>         0.1358
     46 H10        -3.1228   -0.4493    4.8995 H         1 <0>         0.1786
     47 H11        -1.0974    3.9775    6.9483 H         1 <0>         0.4174
     48 H12        -2.2893    3.6008    8.9038 H         1 <0>         0.0787
     49 H13        -3.4941    2.7995    7.8671 H         1 <0>         0.0611
     50 H14        -2.1250    1.8699    8.5225 H         1 <0>         0.0609
     51 H15        -0.8532   -4.6609   -2.5747 H         1 <0>         0.4121
     52 H16         0.6919   -6.4861   -3.4830 H         1 <0>         0.1321
     53 H17         1.2228   -8.8815   -3.2930 H         1 <0>         0.1279
     54 H18        -0.7640   -9.0242    0.4876 H         1 <0>         0.1383
     55 H19        -1.2857   -6.6262    0.3055 H         1 <0>         0.1508
     56 H20         2.1204  -10.2500   -2.6260 H         1 <0>         0.0903
     57 H21        -0.2477  -12.1020   -3.1660 H         1 <0>         0.1019
     58 H22         0.0475  -10.5209   -3.9302 H         1 <0>         0.1187
     59 H23         0.7895  -12.3738   -5.4028 H         1 <0>         0.1373
     60 H24         2.1694  -11.3775   -4.8837 H         1 <0>         0.1306
     61 H25         3.4431  -13.7452   -2.4846 H         1 <0>         0.1404
     62 H26         3.6635  -12.1496   -3.2408 H         1 <0>         0.1318
     63 H27         2.7660  -11.9259   -0.9408 H         1 <0>         0.1227
     64 H28         1.3705  -12.9384   -1.3865 H         1 <0>         0.1014
     65 H29         3.5909  -13.2764   -5.3913 H         1 <0>         0.1225
     66 H30         3.3009  -14.8331   -4.5785 H         1 <0>         0.1259
     67 H31         2.1666  -14.2533   -5.8217 H         1 <0>         0.1254
     68 H32         1.3321  -13.8896   -3.6207 H         1 <0>         0.4272
@<TRIPOS>BOND
     1    1    2 1
     2    1   37 1
     3    1   38 1
     4    1   39 1
     5    2    7 ar
     6    2    3 ar
     7    3    4 ar
     8    3   40 1
     9    4    5 ar
    10    4   41 1
    11    5    6 ar
    12    5   20 1
    13    6    7 ar
    14    6   42 1
    15    7    8 1
    16    8   13 ar
    17    8    9 ar
    18    9   10 ar
    19    9   43 1
    20   10   11 ar
    21   10   44 1
    22   11   17 ar
    23   11   12 ar
    24   12   13 ar
    25   12   14 ar
    26   13   45 1
    27   14   15 ar
    28   14   46 1
    29   15   16 ar
    30   16   17 ar
    31   16   18 1
    32   18   19 1
    33   18   47 1
    34   19   48 1
    35   19   49 1
    36   19   50 1
    37   20   21 2
    38   20   22 am
    39   22   23 1
    40   22   51 1
    41   23   28 ar
    42   23   24 ar
    43   24   25 ar
    44   24   52 1
    45   25   26 ar
    46   25   53 1
    47   26   27 ar
    48   26   29 1
    49   27   28 ar
    50   27   54 1
    51   28   55 1
    52   29   30 1
    53   30   35 1
    54   30   31 1
    55   30   56 1
    56   31   32 1
    57   31   57 1
    58   31   58 1
    59   32   33 1
    60   32   59 1
    61   32   60 1
    62   33   34 1
    63   33   36 1
    64   33   68 1
    65   34   35 1
    66   34   61 1
    67   34   62 1
    68   35   63 1
    69   35   64 1
    70   36   65 1
    71   36   66 1
    72   36   67 1
@<TRIPOS>MOLECULE
CHEMBL495735
   66    71     0     0     0
SMALL
USER_CHARGES

@<TRIPOS>ATOM
      1 C1         -0.0694    1.5189    0.0711 C.3       1 <0>        -0.0469
      2 N1         -0.0407    0.0503    0.0592 N.4       1 <0>        -0.3836
      3 C2         -1.4159   -0.4643    0.0532 C.3       1 <0>        -0.0238
      4 C3         -1.3884   -1.9910   -0.0748 C.3       1 <0>         0.1010
      5 N2         -0.5418   -2.5338    0.9988 N.pl3     1 <0>        -0.6431
      6 C4          0.7998   -1.9584    1.1816 C.3       1 <0>         0.0997
      7 C5          0.6690   -0.4333    1.2503 C.3       1 <0>        -0.0227
      8 C6         -0.9994   -3.5672    1.8226 C.ar      1 <0>         0.2038
      9 C7         -2.3140   -4.0148    1.7084 C.ar      1 <0>        -0.1824
     10 C8         -2.7766   -5.0227    2.5052 C.ar      1 <0>        -0.0245
     11 C9         -1.9283   -5.6156    3.4459 C.ar      1 <0>         0.0322
     12 C10        -0.6013   -5.1665    3.5632 C.ar      1 <0>         0.0869
     13 C11        -0.1419   -4.1452    2.7448 C.ar      1 <0>        -0.1797
     14 N3         -0.0204   -5.9304    4.5593 N.pl3     1 <0>        -0.5833
     15 C12        -0.9782   -6.8013    5.0126 C.2       1 <0>         0.3990
     16 N4         -2.0974   -6.6106    4.3534 N.2       1 <0>        -0.5298
     17 C13        -0.7810   -7.7992    6.0774 C.2       1 <0>        -0.3015
     18 C14        -1.7885   -8.7193    6.3725 C.2       1 <0>         0.3705
     19 C15        -1.5441   -9.6951    7.4427 C.ar      1 <0>        -0.0994
     20 C16        -2.5126  -10.6426    7.7856 C.ar      1 <0>        -0.1382
     21 C17        -2.2530  -11.5485    8.7974 C.ar      1 <0>         0.1955
     22 C18        -1.0332  -11.5169    9.4711 C.ar      1 <0>        -0.1206
     23 C19        -0.0732  -10.5864    9.1401 C.ar      1 <0>        -0.1129
     24 C20        -0.3149   -9.6667    8.1247 C.ar      1 <0>         0.1594
     25 N5          0.6423   -8.7292    7.7832 N.am      1 <0>        -0.6341
     26 H1          1.4865   -8.7193    8.2607 H         1 <0>         0.4174
     27 C21         0.4333   -7.8346    6.8033 C.2       1 <0>         0.5798
     28 O1          1.3093   -7.0305    6.5359 O.2       1 <0>        -0.5732
     29 N6         -3.2180  -12.4994    9.1464 N.pl3     1 <0>        -0.7413
     30 C22        -2.9453  -13.4604   10.2181 C.3       1 <0>         0.1659
     31 C23        -4.1361  -14.3670   10.3947 C.ar      1 <0>        -0.1139
     32 C24        -5.1461  -14.0185   11.2718 C.ar      1 <0>        -0.1001
     33 C25        -6.2383  -14.8501   11.4339 C.ar      1 <0>        -0.1215
     34 C26        -6.3208  -16.0301   10.7185 C.ar      1 <0>        -0.1088
     35 C27        -5.3112  -16.3782    9.8408 C.ar      1 <0>        -0.1214
     36 C28        -4.2210  -15.5445    9.6755 C.ar      1 <0>        -0.1001
     37 N7         -2.9763   -8.7120    5.6811 N.pl3     1 <0>        -0.8026
     38 H2          0.9510    1.9023    0.0676 H         1 <0>         0.1245
     39 H3         -0.5959    1.8792   -0.8126 H         1 <0>         0.1248
     40 H4         -0.5844    1.8650    0.9673 H         1 <0>         0.1214
     41 H5         -1.9121   -0.1864    0.9831 H         1 <0>         0.1326
     42 H6         -1.9596   -0.0386   -0.7902 H         1 <0>         0.1404
     43 H7         -2.4001   -2.3849    0.0220 H         1 <0>         0.1282
     44 H8         -0.9748   -2.2699   -1.0439 H         1 <0>         0.0871
     45 H9          1.2348   -2.3309    2.1091 H         1 <0>         0.1253
     46 H10         1.4344   -2.2341    0.3394 H         1 <0>         0.0869
     47 H11         1.6616    0.0152    1.2890 H         1 <0>         0.1400
     48 H12         0.1098   -0.1564    2.1440 H         1 <0>         0.1324
     49 H13        -2.9731   -3.5602    0.9836 H         1 <0>         0.1283
     50 H14        -3.7975   -5.3618    2.4092 H         1 <0>         0.1341
     51 H15         0.8778   -3.7995    2.8288 H         1 <0>         0.1221
     52 H16        -3.4579  -10.6667    7.2638 H         1 <0>         0.1307
     53 H17        -0.8391  -12.2284   10.2601 H         1 <0>         0.1369
     54 H18         0.8682  -10.5708    9.6693 H         1 <0>         0.1411
     55 H19        -4.0675  -12.5226    8.6788 H         1 <0>         0.4032
     56 H20        -2.0704  -14.0562    9.9580 H         1 <0>         0.0709
     57 H21        -2.7561  -12.9238   11.1478 H         1 <0>         0.0709
     58 H22        -5.0817  -13.0966   11.8307 H         1 <0>         0.1237
     59 H23        -7.0271  -14.5781   12.1196 H         1 <0>         0.1254
     60 H24        -7.1738  -16.6802   10.8457 H         1 <0>         0.1250
     61 H25        -5.3754  -17.3003    9.2821 H         1 <0>         0.1254
     62 H26        -3.4340  -15.8146    8.9870 H         1 <0>         0.1237
     63 H27        -3.0931   -8.1170    4.9239 H         1 <0>         0.4301
     64 H28        -3.6979   -9.3018    5.9503 H         1 <0>         0.4025
     65 H29         0.4389   -0.2689   -0.7692 H         1 <0>         0.4244
     66 H30         0.8934   -5.8630    4.8776 H         1 <0>         0.4361
@<TRIPOS>BOND
     1    1    2 1
     2    1   38 1
     3    1   39 1
     4    1   40 1
     5    2    7 1
     6    2    3 1
     7    2   65 1
     8    3    4 1
     9    3   41 1
    10    3   42 1
    11    4    5 1
    12    4   43 1
    13    4   44 1
    14    5    6 1
    15    5    8 1
    16    6    7 1
    17    6   45 1
    18    6   46 1
    19    7   47 1
    20    7   48 1
    21    8   13 ar
    22    8    9 ar
    23    9   10 ar
    24    9   49 1
    25   10   11 ar
    26   10   50 1
    27   11   16 1
    28   11   12 ar
    29   12   13 ar
    30   12   14 1
    31   13   51 1
    32   14   15 1
    33   14   66 1
    34   15   16 2
    35   15   17 1
    36   17   27 1
    37   17   18 2
    38   18   19 1
    39   18   37 1
    40   19   24 ar
    41   19   20 ar
    42   20   21 ar
    43   20   52 1
    44   21   22 ar
    45   21   29 1
    46   22   23 ar
    47   22   53 1
    48   23   24 ar
    49   23   54 1
    50   24   25 1
    51   25   26 1
    52   25   27 am
    53   27   28 2
    54   29   30 1
    55   29   55 1
    56   30   31 1
    57   30   56 1
    58   30   57 1
    59   31   36 ar
    60   31   32 ar
    61   32   33 ar
    62   32   58 1
    63   33   34 ar
    64   33   59 1
    65   34   35 ar
    66   34   60 1
    67   35   36 ar
    68   35   61 1
    69   36   62 1
    70   37   63 1
    71   37   64 1
@<TRIPOS>MOLECULE
CHEMBL495735__1
   65    70     0     0     0
SMALL
USER_CHARGES

@<TRIPOS>ATOM
      1 C1          0.0161    1.3970   -0.1073 C.3       1 <0>         0.0244
      2 N1          0.0405   -0.0717   -0.0927 N.3       1 <0>        -0.5426
      3 C2         -1.3178   -0.6218   -0.1936 C.3       1 <0>         0.0381
      4 C3         -1.2383   -2.1434   -0.3573 C.3       1 <0>         0.1276
      5 N2         -0.4260   -2.6895    0.7406 N.pl3     1 <0>        -0.6322
      6 C4          0.8954   -2.0944    0.9913 C.3       1 <0>         0.1275
      7 C5          0.7318   -0.5748    1.1019 C.3       1 <0>         0.0389
      8 C6         -0.8982   -3.7470    1.5259 C.ar      1 <0>         0.2166
      9 C7         -2.1985   -4.2153    1.3483 C.ar      1 <0>        -0.1742
     10 C8         -2.6756   -5.2565    2.1156 C.ar      1 <0>        -0.0593
     11 C9         -1.8592   -5.8437    3.0712 C.ar      1 <0>        -0.0050
     12 C10        -0.5462   -5.3781    3.2576 C.ar      1 <0>         0.1135
     13 C11        -0.0703   -4.3250    2.4699 C.ar      1 <0>        -0.1717
     14 N3          0.0100   -6.1265    4.2423 N.2       1 <0>        -0.5446
     15 C12        -0.8612   -7.0115    4.6703 C.2       1 <0>         0.3953
     16 N4         -2.0351   -6.8776    3.9768 N.pl3     1 <0>        -0.5810
     17 H1         -2.8387   -7.4074    4.0971 H         1 <0>         0.4327
     18 C13        -0.6133   -7.9988    5.7342 C.2       1 <0>        -0.2929
     19 C14         0.5793   -7.9650    6.4594 C.2       1 <0>         0.3629
     20 C15         0.7797   -8.9707    7.5108 C.ar      1 <0>        -0.0963
     21 C16         1.9515   -8.9899    8.2723 C.ar      1 <0>        -0.1365
     22 C17         2.1110   -9.9489    9.2555 C.ar      1 <0>         0.1915
     23 C18         1.1093  -10.8906    9.4856 C.ar      1 <0>        -0.1236
     24 C19        -0.0485  -10.8793    8.7398 C.ar      1 <0>        -0.1147
     25 C20        -0.2281   -9.9222    7.7462 C.ar      1 <0>         0.1610
     26 N5         -1.3871   -9.9009    6.9925 N.am      1 <0>        -0.6358
     27 H2         -2.0753  -10.5625    7.1641 H         1 <0>         0.4160
     28 C21        -1.5850   -8.9837    6.0315 C.2       1 <0>         0.5774
     29 O1         -2.6254   -9.0028    5.3969 O.2       1 <0>        -0.5669
     30 N6          3.2815   -9.9746   10.0213 N.pl3     1 <0>        -0.7431
     31 C22         3.4528  -10.9897   11.0636 C.3       1 <0>         0.1667
     32 C23         4.7882  -10.7994   11.7355 C.ar      1 <0>        -0.1117
     33 C24         5.9081  -11.4421   11.2418 C.ar      1 <0>        -0.1001
     34 C25         7.1331  -11.2676   11.8581 C.ar      1 <0>        -0.1219
     35 C26         7.2383  -10.4500   12.9678 C.ar      1 <0>        -0.1102
     36 C27         6.1186   -9.8067   13.4610 C.ar      1 <0>        -0.1219
     37 C28         4.8944   -9.9778   12.8421 C.ar      1 <0>        -0.1002
     38 N7          1.5391   -7.0174    6.1964 N.pl3     1 <0>        -0.8035
     39 H3          1.0376    1.7774   -0.1085 H         1 <0>         0.0700
     40 H4         -0.5014    1.7429   -1.0021 H         1 <0>         0.0697
     41 H5         -0.5060    1.7606    0.7777 H         1 <0>         0.0253
     42 H6         -1.8755   -0.3821    0.7117 H         1 <0>         0.0383
     43 H7         -1.8223   -0.1890   -1.0574 H         1 <0>         0.0848
     44 H8         -2.2410   -2.5688   -0.3176 H         1 <0>         0.0865
     45 H9         -0.7725   -2.3850   -1.3126 H         1 <0>         0.0691
     46 H10         1.3033   -2.4875    1.9225 H         1 <0>         0.0871
     47 H11         1.5663   -2.3313    0.1655 H         1 <0>         0.0686
     48 H12         1.7138   -0.1078    1.1775 H         1 <0>         0.0846
     49 H13         0.1456   -0.3357    1.9891 H         1 <0>         0.0382
     50 H14        -2.8363   -3.7598    0.6053 H         1 <0>         0.1294
     51 H15        -3.6845   -5.6146    1.9732 H         1 <0>         0.1227
     52 H16         0.9385   -3.9624    2.6014 H         1 <0>         0.1259
     53 H17         2.7277   -8.2605    8.0937 H         1 <0>         0.1302
     54 H18         1.2425  -11.6360   10.2557 H         1 <0>         0.1347
     55 H19        -0.8176  -11.6142    8.9264 H         1 <0>         0.1396
     56 H20         3.9796   -9.3202    9.8622 H         1 <0>         0.4025
     57 H21         2.6571  -10.8902   11.8020 H         1 <0>         0.0697
     58 H22         3.4100  -11.9821   10.6148 H         1 <0>         0.0699
     59 H23         5.8259  -12.0808   10.3748 H         1 <0>         0.1240
     60 H24         8.0079  -11.7702   11.4728 H         1 <0>         0.1248
     61 H25         8.1952  -10.3142   13.4497 H         1 <0>         0.1241
     62 H26         6.2007   -9.1682   14.3282 H         1 <0>         0.1247
     63 H27         4.0203   -9.4722   13.2251 H         1 <0>         0.1239
     64 H28         1.3604   -6.3108    5.5564 H         1 <0>         0.4319
     65 H29         2.3952   -7.0552    6.6507 H         1 <0>         0.3996
@<TRIPOS>BOND
     1    1    2 1
     2    1   39 1
     3    1   40 1
     4    1   41 1
     5    2    7 1
     6    2    3 1
     7    3    4 1
     8    3   42 1
     9    3   43 1
    10    4    5 1
    11    4   44 1
    12    4   45 1
    13    5    6 1
    14    5    8 1
    15    6    7 1
    16    6   46 1
    17    6   47 1
    18    7   48 1
    19    7   49 1
    20    8   13 ar
    21    8    9 ar
    22    9   10 ar
    23    9   50 1
    24   10   11 ar
    25   10   51 1
    26   11   16 1
    27   11   12 ar
    28   12   13 ar
    29   12   14 1
    30   13   52 1
    31   14   15 2
    32   15   16 1
    33   15   18 1
    34   16   17 1
    35   18   28 1
    36   18   19 2
    37   19   20 1
    38   19   38 1
    39   20   25 ar
    40   20   21 ar
    41   21   22 ar
    42   21   53 1
    43   22   23 ar
    44   22   30 1
    45   23   24 ar
    46   23   54 1
    47   24   25 ar
    48   24   55 1
    49   25   26 1
    50   26   27 1
    51   26   28 am
    52   28   29 2
    53   30   31 1
    54   30   56 1
    55   31   32 1
    56   31   57 1
    57   31   58 1
    58   32   37 ar
    59   32   33 ar
    60   33   34 ar
    61   33   59 1
    62   34   35 ar
    63   34   60 1
    64   35   36 ar
    65   35   61 1
    66   36   37 ar
    67   36   62 1
    68   37   63 1
    69   38   64 1
    70   38   65 1
@<TRIPOS>MOLECULE
CHEMBL495735__2
   66    71     0     0     0
SMALL
USER_CHARGES

@<TRIPOS>ATOM
      1 C1          0.0141    1.3893   -0.1095 C.3       1 <0>        -0.0468
      2 N1          0.0390   -0.0794   -0.0942 N.4       1 <0>        -0.3835
      3 C2         -1.3375   -0.5906   -0.1021 C.3       1 <0>        -0.0236
      4 C3         -1.3130   -2.1194   -0.2019 C.3       1 <0>         0.1013
      5 N2         -0.4765   -2.6445    0.8883 N.pl3     1 <0>        -0.6445
      6 C4          0.8650   -2.0693    1.0716 C.3       1 <0>         0.1006
      7 C5          0.7376   -0.5428    1.1112 C.3       1 <0>        -0.0229
      8 C6         -0.9438   -3.6620    1.7276 C.ar      1 <0>         0.1918
      9 C7         -2.2589   -4.1077    1.6103 C.ar      1 <0>        -0.1732
     10 C8         -2.7315   -5.1094    2.4312 C.ar      1 <0>        -0.0531
     11 C9         -1.8957   -5.6793    3.3804 C.ar      1 <0>         0.0090
     12 C10        -0.5677   -5.2363    3.5060 C.ar      1 <0>         0.1118
     13 C11        -0.0968   -4.2235    2.6646 C.ar      1 <0>        -0.1528
     14 N3          0.0057   -5.9605    4.4989 N.2       1 <0>        -0.5470
     15 C12        -0.8688   -6.8099    4.9880 C.2       1 <0>         0.4139
     16 N4         -2.0624   -6.6755    4.3290 N.pl3     1 <0>        -0.5797
     17 H1         -2.8724   -7.1826    4.4954 H         1 <0>         0.4376
     18 C13        -0.6058   -7.7630    6.0790 C.2       1 <0>        -0.3030
     19 C14         0.6108   -7.7287    6.7633 C.2       1 <0>         0.3729
     20 C15         0.8255   -8.6997    7.8441 C.ar      1 <0>        -0.1013
     21 C16         2.0214   -8.7166    8.5672 C.ar      1 <0>        -0.1383
     22 C17         2.1940   -9.6425    9.5795 C.ar      1 <0>         0.1948
     23 C18         1.1816  -10.5533    9.8768 C.ar      1 <0>        -0.1194
     24 C19         0.0000  -10.5441    9.1691 C.ar      1 <0>        -0.1129
     25 C20        -0.1931   -9.6201    8.1472 C.ar      1 <0>         0.1616
     26 N5         -1.3758   -9.6011    7.4314 N.am      1 <0>        -0.6339
     27 H2         -2.0713  -10.2410    7.6497 H         1 <0>         0.4182
     28 C21        -1.5869   -8.7154    6.4440 C.2       1 <0>         0.5788
     29 O1         -2.6481   -8.7350    5.8448 O.2       1 <0>        -0.5688
     30 N6          3.3886   -9.6656   10.3072 N.pl3     1 <0>        -0.7413
     31 C22         3.5738  -10.6457   11.3802 C.3       1 <0>         0.1657
     32 C23         4.9345  -10.4601   12.0008 C.ar      1 <0>        -0.1136
     33 C24         6.0240  -11.1442   11.4950 C.ar      1 <0>        -0.1001
     34 C25         7.2721  -10.9740   12.0642 C.ar      1 <0>        -0.1214
     35 C26         7.4309  -10.1192   13.1389 C.ar      1 <0>        -0.1089
     36 C27         6.3416   -9.4343   13.6441 C.ar      1 <0>        -0.1215
     37 C28         5.0942   -9.6013   13.0722 C.ar      1 <0>        -0.1002
     38 N7          1.5804   -6.8123    6.4343 N.pl3     1 <0>        -0.8034
     39 H3          1.0354    1.7700   -0.1117 H         1 <0>         0.1243
     40 H4         -0.5044    1.7346   -1.0039 H         1 <0>         0.1244
     41 H5         -0.5073    1.7531    0.7759 H         1 <0>         0.1211
     42 H6         -1.8405   -0.2945    0.8185 H         1 <0>         0.1322
     43 H7         -1.8732   -0.1791   -0.9576 H         1 <0>         0.1397
     44 H8         -2.3265   -2.5090   -0.1062 H         1 <0>         0.1269
     45 H9         -0.8922   -2.4170   -1.1624 H         1 <0>         0.0864
     46 H10         1.2914   -2.4257    2.0092 H         1 <0>         0.1268
     47 H11         1.5057   -2.3619    0.2397 H         1 <0>         0.0861
     48 H12         1.7311   -0.0961    1.1499 H         1 <0>         0.1395
     49 H13         0.1719   -0.2482    1.9951 H         1 <0>         0.1321
     50 H14        -2.9118   -3.6655    0.8724 H         1 <0>         0.1289
     51 H15        -3.7519   -5.4501    2.3355 H         1 <0>         0.1291
     52 H16         0.9232   -3.8786    2.7491 H         1 <0>         0.1266
     53 H17         2.8060   -8.0111    8.3366 H         1 <0>         0.1301
     54 H18         1.3251  -11.2730   10.6692 H         1 <0>         0.1372
     55 H19        -0.7773  -11.2550    9.4077 H         1 <0>         0.1417
     56 H20         4.0942   -9.0327   10.1014 H         1 <0>         0.4028
     57 H21         2.8054  -10.5023   12.1399 H         1 <0>         0.0710
     58 H22         3.4958  -11.6526   10.9701 H         1 <0>         0.0711
     59 H23         5.8999  -11.8121   10.6554 H         1 <0>         0.1238
     60 H24         8.1232  -11.5091   11.6695 H         1 <0>         0.1254
     61 H25         8.4059   -9.9867   13.5841 H         1 <0>         0.1250
     62 H26         6.4655   -8.7667   14.4840 H         1 <0>         0.1253
     63 H27         4.2438   -9.0634   13.4645 H         1 <0>         0.1237
     64 H28         1.3948   -6.1254    5.7750 H         1 <0>         0.4296
     65 H29         2.4504   -6.8523    6.8614 H         1 <0>         0.4020
     66 H30         0.5244   -0.4148   -0.9127 H         1 <0>         0.4244
@<TRIPOS>BOND
     1    1    2 1
     2    1   39 1
     3    1   40 1
     4    1   41 1
     5    2    7 1
     6    2    3 1
     7    2   66 1
     8    3    4 1
     9    3   42 1
    10    3   43 1
    11    4    5 1
    12    4   44 1
    13    4   45 1
    14    5    6 1
    15    5    8 1
    16    6    7 1
    17    6   46 1
    18    6   47 1
    19    7   48 1
    20    7   49 1
    21    8   13 ar
    22    8    9 ar
    23    9   10 ar
    24    9   50 1
    25   10   11 ar
    26   10   51 1
    27   11   16 1
    28   11   12 ar
    29   12   13 ar
    30   12   14 1
    31   13   52 1
    32   14   15 2
    33   15   16 1
    34   15   18 1
    35   16   17 1
    36   18   28 1
    37   18   19 2
    38   19   20 1
    39   19   38 1
    40   20   25 ar
    41   20   21 ar
    42   21   22 ar
    43   21   53 1
    44   22   23 ar
    45   22   30 1
    46   23   24 ar
    47   23   54 1
    48   24   25 ar
    49   24   55 1
    50   25   26 1
    51   26   27 1
    52   26   28 am
    53   28   29 2
    54   30   31 1
    55   30   56 1
    56   31   32 1
    57   31   57 1
    58   31   58 1
    59   32   37 ar
    60   32   33 ar
    61   33   34 ar
    62   33   59 1
    63   34   35 ar
    64   34   60 1
    65   35   36 ar
    66   35   61 1
    67   36   37 ar
    68   36   62 1
    69   37   63 1
    70   38   64 1
    71   38   65 1
@<TRIPOS>MOLECULE
CHEMBL402550
   52    56     0     0     0
SMALL
USER_CHARGES

@<TRIPOS>ATOM
      1 C1         10.8469    0.9825   -3.5870 C.ar      1 <0>        -0.1129
      2 C2         10.7653   -0.3966   -3.5377 C.ar      1 <0>        -0.1181
      3 C3          9.7515   -1.0038   -2.8204 C.ar      1 <0>        -0.1014
      4 C4          8.8196   -0.2319   -2.1521 C.ar      1 <0>        -0.0803
      5 C5          8.9017    1.1472   -2.2007 C.ar      1 <0>        -0.1014
      6 C6          9.9147    1.7544   -2.9191 C.ar      1 <0>        -0.1181
      7 C7          7.7138   -0.8938   -1.3710 C.3       1 <0>        -0.0931
      8 C8          8.1684   -1.1231    0.0473 C.2       1 <0>         0.4823
      9 O1          9.2804   -0.7827    0.3901 O.2       1 <0>        -0.3883
     10 N1          7.3388   -1.7067    0.9349 N.am      1 <0>        -0.6408
     11 C9          7.7453   -1.9117    2.2034 C.2       1 <0>         0.5054
     12 S1          9.3156   -1.4310    2.6873 S.2       1 <0>        -0.4713
     13 N2          6.9157   -2.4953    3.0909 N.pl3     1 <0>        -0.6251
     14 C10         7.3760   -2.8147    4.3745 C.ar      1 <0>         0.1659
     15 C11         6.5607   -2.6001    5.4780 C.ar      1 <0>        -0.1175
     16 C12         7.0141   -2.9150    6.7439 C.ar      1 <0>        -0.0787
     17 C13         8.2838   -3.4463    6.9144 C.ar      1 <0>         0.0435
     18 C14         9.1008   -3.6617    5.8114 C.ar      1 <0>         0.1099
     19 C15         8.6453   -3.3515    4.5433 C.ar      1 <0>        -0.1025
     20 F1         10.3380   -4.1784    5.9775 F         1 <0>        -0.1181
     21 O2          8.7294   -3.7560    8.1614 O.3       1 <0>        -0.2370
     22 C16         9.4949   -2.8416    8.8101 C.ar      1 <0>         0.2093
     23 C17         9.8938   -1.6636    8.1820 C.ar      1 <0>        -0.2239
     24 C18        10.6739   -0.7684    8.8951 C.ar      1 <0>         0.1613
     25 N3         11.0461   -0.9912   10.1298 N.ar      1 <0>        -0.4682
     26 C19        10.6990   -2.1106   10.8065 C.ar      1 <0>         0.1500
     27 C20         9.8982   -3.0477   10.1172 C.ar      1 <0>        -0.1974
     28 S2          9.6515   -4.3404   11.3070 S.3       1 <0>         0.1368
     29 C21        10.5803   -3.6297   12.6550 C.2       1 <0>        -0.0507
     30 C22        11.0350   -2.4616   12.1265 C.2       1 <0>        -0.0804
     31 C23        10.8086   -4.1780   14.0023 C.2       1 <0>         0.1703
     32 N4         11.4900   -3.6616   15.0179 N.2       1 <0>        -0.4788
     33 C24        11.5909   -4.2952   16.1616 C.2       1 <0>         0.0283
     34 C25        10.9900   -5.5051   16.3220 C.2       1 <0>        -0.1886
     35 S3         10.2360   -5.7152   14.7139 S.3       1 <0>         0.0437
     36 H1         11.6416    1.4568   -4.1437 H         1 <0>         0.1233
     37 H2         11.4934   -0.9996   -4.0598 H         1 <0>         0.1239
     38 H3          9.6874   -2.0812   -2.7824 H         1 <0>         0.1202
     39 H4          8.1734    1.7502   -1.6789 H         1 <0>         0.1202
     40 H5          9.9786    2.8318   -2.9574 H         1 <0>         0.1239
     41 H6          6.8337   -0.2507   -1.3710 H         1 <0>         0.1094
     42 H7          7.4653   -1.8498   -1.8320 H         1 <0>         0.1093
     43 H8          6.4491   -1.9790    0.6607 H         1 <0>         0.4127
     44 H9          5.9998   -2.6940    2.8407 H         1 <0>         0.4133
     45 H10         5.5718   -2.1864    5.3462 H         1 <0>         0.1456
     46 H11         6.3798   -2.7471    7.6017 H         1 <0>         0.1523
     47 H12         9.2782   -3.5224    3.6851 H         1 <0>         0.1639
     48 H13         9.6021   -1.4537    7.1635 H         1 <0>         0.1532
     49 H14        10.9868    0.1468    8.4146 H         1 <0>         0.1712
     50 H15        11.6420   -1.7979   12.7244 H         1 <0>         0.1612
     51 H16        12.1504   -3.8572   16.9750 H         1 <0>         0.1767
     52 H17        10.9707   -6.1567   17.1830 H         1 <0>         0.2058
@<TRIPOS>BOND
     1    1    6 ar
     2    1    2 ar
     3    1   36 1
     4    2    3 ar
     5    2   37 1
     6    3    4 ar
     7    3   38 1
     8    4    5 ar
     9    4    7 1
    10    5    6 ar
    11    5   39 1
    12    6   40 1
    13    7    8 1
    14    7   41 1
    15    7   42 1
    16    8    9 2
    17    8   10 am
    18   10   11 1
    19   10   43 1
    20   11   12 2
    21   11   13 1
    22   13   14 1
    23   13   44 1
    24   14   19 ar
    25   14   15 ar
    26   15   16 ar
    27   15   45 1
    28   16   17 ar
    29   16   46 1
    30   17   18 ar
    31   17   21 1
    32   18   19 ar
    33   18   20 1
    34   19   47 1
    35   21   22 1
    36   22   27 ar
    37   22   23 ar
    38   23   24 ar
    39   23   48 1
    40   24   25 ar
    41   24   49 1
    42   25   26 ar
    43   26   30 1
    44   26   27 ar
    45   27   28 1
    46   28   29 1
    47   29   30 2
    48   29   31 1
    49   30   50 1
    50   31   35 1
    51   31   32 2
    52   32   33 1
    53   33   34 2
    54   33   51 1
    55   34   35 1
    56   34   52 1
@<TRIPOS>MOLECULE
CHEMBL502621
   72    77     0     0     0
SMALL
USER_CHARGES

@<TRIPOS>ATOM
      1 C1         -0.3671    1.4218    0.5889 C.3       1 <0>        -0.0488
      2 N1         -0.2602   -0.0353    0.4359 N.4       1 <0>        -0.3786
      3 C2          0.4641   -0.5964    1.5841 C.3       1 <0>        -0.0521
      4 C3         -1.6059   -0.6209    0.3721 C.3       1 <0>         0.0018
      5 H1         -2.1632   -0.4147    1.2858 H         1 <0>         0.1589
      6 C4         -2.3754   -0.1120   -0.8755 C.3       1 <0>        -0.1395
      7 C5         -3.3719   -1.2561   -1.1574 C.3       1 <0>         0.0846
      8 N2         -2.8284   -2.4718   -0.5346 N.am      1 <0>        -0.6172
      9 C6         -1.5363   -2.1436    0.0959 C.3       1 <0>         0.1005
     10 C7         -3.4146   -3.6854   -0.5378 C.2       1 <0>         0.6324
     11 O1         -2.8715   -4.6246    0.0121 O.2       1 <0>        -0.4955
     12 C8         -4.7118   -3.8743   -1.2066 C.2       1 <0>        -0.1927
     13 C9         -5.4550   -5.0088   -1.3112 C.2       1 <0>        -0.0335
     14 C10        -6.6813   -4.9838   -1.9987 C.ar      1 <0>         0.1326
     15 C11        -7.0450   -3.7313   -2.5404 C.ar      1 <0>        -0.1899
     16 S1         -5.7024   -2.6695   -2.0740 S.3       1 <0>         0.1151
     17 C12        -8.2265   -3.5542   -3.2438 C.ar      1 <0>         0.2052
     18 C13        -9.0589   -4.6570   -3.4062 C.ar      1 <0>        -0.2151
     19 C14        -8.6638   -5.8685   -2.8581 C.ar      1 <0>         0.1641
     20 N3         -7.5436   -6.0077   -2.1990 N.ar      1 <0>        -0.4626
     21 O2         -8.5607   -2.3431   -3.7574 O.3       1 <0>        -0.2336
     22 C15        -9.6781   -2.2630   -4.5285 C.ar      1 <0>         0.0144
     23 C16        -9.5632   -2.1024   -5.9012 C.ar      1 <0>        -0.0589
     24 C17       -10.6974   -2.0213   -6.6850 C.ar      1 <0>        -0.1418
     25 C18       -11.9540   -2.1000   -6.0993 C.ar      1 <0>         0.2051
     26 C19       -12.0703   -2.2607   -4.7253 C.ar      1 <0>        -0.1609
     27 C20       -10.9345   -2.3476   -3.9415 C.ar      1 <0>         0.1168
     28 F1        -11.0465   -2.5092   -2.6049 F         1 <0>        -0.1196
     29 N4        -13.1043   -2.0168   -6.8949 N.am      1 <0>        -0.6693
     30 C21       -14.2584   -1.5647   -6.3656 C.2       1 <0>         0.7306
     31 O3        -14.3409   -1.3636   -5.1697 O.2       1 <0>        -0.5018
     32 N5        -15.3210   -1.3356   -7.1624 N.am      1 <0>        -0.5854
     33 C22       -15.3931   -1.6486   -8.5975 C.3       1 <0>         0.0677
     34 C23       -16.8063   -1.1887   -9.0051 C.3       1 <0>         0.0878
     35 N6        -17.3804   -0.6655   -7.7564 N.am      1 <0>        -0.5613
     36 C24       -16.4811   -0.7919   -6.7717 C.2       1 <0>         0.7075
     37 O4        -16.6969   -0.4414   -5.6281 O.2       1 <0>        -0.5031
     38 C25       -18.6643   -0.1265   -7.6177 C.ar      1 <0>         0.1775
     39 C26       -19.0248    0.5187   -6.4420 C.ar      1 <0>        -0.1497
     40 C27       -20.2928    1.0495   -6.3081 C.ar      1 <0>        -0.0889
     41 C28       -21.2032    0.9387   -7.3430 C.ar      1 <0>        -0.1390
     42 C29       -20.8473    0.2968   -8.5150 C.ar      1 <0>        -0.0910
     43 C30       -19.5788   -0.2307   -8.6575 C.ar      1 <0>        -0.1535
     44 H2          0.6314    1.8564    0.6363 H         1 <0>         0.1286
     45 H3         -0.9045    1.8382   -0.2630 H         1 <0>         0.1248
     46 H4         -0.9074    1.6521    1.5071 H         1 <0>         0.1247
     47 H5          0.5434   -1.6776    1.4705 H         1 <0>         0.1250
     48 H6          1.4626   -0.1619    1.6315 H         1 <0>         0.1294
     49 H7         -0.0763   -0.3662    2.5023 H         1 <0>         0.1255
     50 H8         -2.9047    0.8140   -0.6509 H         1 <0>         0.1180
     51 H9         -1.6970    0.0249   -1.7176 H         1 <0>         0.1040
     52 H10        -4.3423   -1.0183   -0.7215 H         1 <0>         0.0965
     53 H11        -3.4724   -1.4036   -2.2327 H         1 <0>         0.0990
     54 H12        -0.7147   -2.3686   -0.5841 H         1 <0>         0.0922
     55 H13        -1.4185   -2.6935    1.0296 H         1 <0>         0.1116
     56 H14        -5.1032   -5.9282   -0.8669 H         1 <0>         0.1634
     57 H15        -9.9907   -4.5718   -3.9456 H         1 <0>         0.1532
     58 H16        -9.3054   -6.7286   -2.9805 H         1 <0>         0.1750
     59 H17        -8.5863   -2.0404   -6.3574 H         1 <0>         0.1519
     60 H18       -10.6070   -1.8963   -7.7540 H         1 <0>         0.1491
     61 H19       -13.0474   -2.3220   -4.2693 H         1 <0>         0.1804
     62 H20       -13.0700   -2.2845   -7.8266 H         1 <0>         0.4175
     63 H21       -14.6356   -1.0918   -9.1491 H         1 <0>         0.1058
     64 H22       -15.2772   -2.7199   -8.7617 H         1 <0>         0.1063
     65 H23       -16.7506   -0.4036   -9.7591 H         1 <0>         0.1032
     66 H24       -17.3921   -2.0317   -9.3717 H         1 <0>         0.1025
     67 H25       -18.3145    0.6049   -5.6330 H         1 <0>         0.1534
     68 H26       -20.5737    1.5514   -5.3940 H         1 <0>         0.1295
     69 H27       -22.1943    1.3539   -7.2356 H         1 <0>         0.1265
     70 H28       -21.5607    0.2115   -9.3214 H         1 <0>         0.1301
     71 H29       -19.3000   -0.7280   -9.5748 H         1 <0>         0.1263
     72 H30         0.2400   -0.2484   -0.4141 H         1 <0>         0.4272
@<TRIPOS>BOND
     1    1    2 1
     2    1   44 1
     3    1   45 1
     4    1   46 1
     5    2    3 1
     6    2    4 1
     7    2   72 1
     8    3   47 1
     9    3   48 1
    10    3   49 1
    11    4    5 1
    12    4    9 1
    13    4    6 1
    14    6    7 1
    15    6   50 1
    16    6   51 1
    17    7    8 1
    18    7   52 1
    19    7   53 1
    20    8    9 1
    21    8   10 am
    22    9   54 1
    23    9   55 1
    24   10   11 2
    25   10   12 1
    26   12   16 1
    27   12   13 2
    28   13   14 1
    29   13   56 1
    30   14   20 ar
    31   14   15 ar
    32   15   16 1
    33   15   17 ar
    34   17   18 ar
    35   17   21 1
    36   18   19 ar
    37   18   57 1
    38   19   20 ar
    39   19   58 1
    40   21   22 1
    41   22   27 ar
    42   22   23 ar
    43   23   24 ar
    44   23   59 1
    45   24   25 ar
    46   24   60 1
    47   25   26 ar
    48   25   29 1
    49   26   27 ar
    50   26   61 1
    51   27   28 1
    52   29   30 am
    53   29   62 1
    54   30   31 2
    55   30   32 am
    56   32   36 am
    57   32   33 1
    58   33   34 1
    59   33   63 1
    60   33   64 1
    61   34   35 1
    62   34   65 1
    63   34   66 1
    64   35   36 am
    65   35   38 1
    66   36   37 2
    67   38   43 ar
    68   38   39 ar
    69   39   40 ar
    70   39   67 1
    71   40   41 ar
    72   40   68 1
    73   41   42 ar
    74   41   69 1
    75   42   43 ar
    76   42   70 1
    77   43   71 1
@<TRIPOS>MOLECULE
CHEMBL455655
   62    67     0     0     0
SMALL
USER_CHARGES

@<TRIPOS>ATOM
      1 C1         -0.8795   -1.4618   -0.0117 C.3       1 <0>        -0.1750
      2 C2         -0.3444   -1.6212    1.4128 C.3       1 <0>         0.0901
      3 N1          0.7025   -0.6255    1.6555 N.pl3     1 <0>        -0.4468
      4 C3          2.0510   -0.8100    1.5110 C.2       1 <0>        -0.0307
      5 C4          2.6472    0.3561    1.8359 C.2       1 <0>        -0.0201
      6 N2          1.6987    1.2367    2.1715 N.2       1 <0>        -0.4528
      7 C5          0.5178    0.6650    2.0633 C.2       1 <0>         0.2632
      8 C6         -0.7796    1.3057    2.3387 C.2       1 <0>        -0.0374
      9 C7         -1.0275    2.4710    2.9946 C.2       1 <0>        -0.1016
     10 C8         -2.3515    2.9180    3.1559 C.ar      1 <0>         0.1594
     11 C9         -3.3437    2.0813    2.5991 C.ar      1 <0>        -0.2076
     12 S1         -2.4138    0.7486    1.8873 S.3       1 <0>         0.1102
     13 C10        -4.6896    2.3918    2.6795 C.ar      1 <0>         0.2113
     14 C11        -5.0500    3.5682    3.3331 C.ar      1 <0>        -0.2335
     15 C12        -4.0460    4.3605    3.8651 C.ar      1 <0>         0.1611
     16 N3         -2.7798    4.0427    3.7747 N.ar      1 <0>        -0.4719
     17 O1         -5.6297    1.5758    2.1379 O.3       1 <0>        -0.2353
     18 C13        -6.9381    1.8826    2.3464 C.ar      1 <0>         0.0230
     19 C14        -7.6978    1.1213    3.2219 C.ar      1 <0>        -0.0610
     20 C15        -9.0266    1.4321    3.4342 C.ar      1 <0>        -0.1416
     21 C16        -9.6033    2.5073    2.7713 C.ar      1 <0>         0.1983
     22 C17        -8.8437    3.2705    1.8950 C.ar      1 <0>        -0.1608
     23 C18        -7.5120    2.9623    1.6867 C.ar      1 <0>         0.1161
     24 F1         -6.7706    3.7074    0.8380 F         1 <0>        -0.1186
     25 N4        -10.9516    2.8216    2.9864 N.am      1 <0>        -0.6683
     26 C19       -11.6561    3.4579    2.0297 C.2       1 <0>         0.7295
     27 O2        -11.0915    3.8846    1.0415 O.2       1 <0>        -0.5010
     28 N5        -12.9868    3.6209    2.1687 N.am      1 <0>        -0.5855
     29 C20       -13.7693    3.2618    3.3608 C.3       1 <0>         0.0678
     30 C21       -15.2121    3.6535    2.9872 C.3       1 <0>         0.0884
     31 N6        -15.0894    4.1917    1.6242 N.am      1 <0>        -0.5624
     32 C22       -13.8056    4.1411    1.2450 C.2       1 <0>         0.7076
     33 O3        -13.4194    4.5286    0.1597 O.2       1 <0>        -0.5028
     34 C23       -16.1450    4.6840    0.8487 C.ar      1 <0>         0.1797
     35 C24       -15.9440    4.9788   -0.4934 C.ar      1 <0>        -0.1498
     36 C25       -16.9881    5.4641   -1.2562 C.ar      1 <0>        -0.0887
     37 C26       -18.2325    5.6569   -0.6848 C.ar      1 <0>        -0.1407
     38 C27       -18.4358    5.3648    0.6515 C.ar      1 <0>        -0.0916
     39 C28       -17.3974    4.8734    1.4181 C.ar      1 <0>        -0.1545
     40 H1         -0.0670   -1.6081   -0.7234 H         1 <0>         0.0687
     41 H2         -1.6584   -2.2026   -0.1923 H         1 <0>         0.0849
     42 H3         -1.2942   -0.4613   -0.1342 H         1 <0>         0.0677
     43 H4         -1.1569   -1.4750    2.1246 H         1 <0>         0.0955
     44 H5          0.0703   -2.6217    1.5354 H         1 <0>         0.1031
     45 H6          2.5446   -1.7176    1.1963 H         1 <0>         0.1837
     46 H7          3.7103    0.5458    1.8267 H         1 <0>         0.1796
     47 H8         -0.2086    3.0526    3.3915 H         1 <0>         0.1605
     48 H9         -6.0872    3.8557    3.4225 H         1 <0>         0.1476
     49 H10        -4.3181    5.2738    4.3732 H         1 <0>         0.1690
     50 H11        -7.2501    0.2846    3.7377 H         1 <0>         0.1522
     51 H12        -9.6176    0.8384    4.1159 H         1 <0>         0.1473
     52 H13        -9.2918    4.1069    1.3791 H         1 <0>         0.1786
     53 H14       -11.3780    2.5813    3.8238 H         1 <0>         0.4162
     54 H15       -13.7015    2.1914    3.5548 H         1 <0>         0.1057
     55 H16       -13.4304    3.8308    4.2266 H         1 <0>         0.1060
     56 H17       -15.8607    2.7775    2.9957 H         1 <0>         0.1025
     57 H18       -15.5896    4.4170    3.6674 H         1 <0>         0.1017
     58 H19       -14.9722    4.8291   -0.9401 H         1 <0>         0.1540
     59 H20       -16.8324    5.6935   -2.3000 H         1 <0>         0.1292
     60 H21       -19.0473    6.0368   -1.2833 H         1 <0>         0.1256
     61 H22       -19.4086    5.5171    1.0950 H         1 <0>         0.1292
     62 H23       -17.5579    4.6411    2.4606 H         1 <0>         0.1260
@<TRIPOS>BOND
     1    1    2 1
     2    1   40 1
     3    1   41 1
     4    1   42 1
     5    2    3 1
     6    2   43 1
     7    2   44 1
     8    3    7 1
     9    3    4 1
    10    4    5 2
    11    4   45 1
    12    5    6 1
    13    5   46 1
    14    6    7 2
    15    7    8 1
    16    8   12 1
    17    8    9 2
    18    9   10 1
    19    9   47 1
    20   10   16 ar
    21   10   11 ar
    22   11   12 1
    23   11   13 ar
    24   13   14 ar
    25   13   17 1
    26   14   15 ar
    27   14   48 1
    28   15   16 ar
    29   15   49 1
    30   17   18 1
    31   18   23 ar
    32   18   19 ar
    33   19   20 ar
    34   19   50 1
    35   20   21 ar
    36   20   51 1
    37   21   22 ar
    38   21   25 1
    39   22   23 ar
    40   22   52 1
    41   23   24 1
    42   25   26 am
    43   25   53 1
    44   26   27 2
    45   26   28 am
    46   28   32 am
    47   28   29 1
    48   29   30 1
    49   29   54 1
    50   29   55 1
    51   30   31 1
    52   30   56 1
    53   30   57 1
    54   31   32 am
    55   31   34 1
    56   32   33 2
    57   34   39 ar
    58   34   35 ar
    59   35   36 ar
    60   35   58 1
    61   36   37 ar
    62   36   59 1
    63   37   38 ar
    64   37   60 1
    65   38   39 ar
    66   38   61 1
    67   39   62 1
@<TRIPOS>MOLECULE
CHEMBL455655__1
   63    68     0     0     0
SMALL
USER_CHARGES

@<TRIPOS>ATOM
      1 C1          0.9913   -1.3566    0.5678 C.3       1 <0>        -0.1799
      2 C2          1.8424   -1.5451   -0.6896 C.3       1 <0>         0.0810
      3 N1          1.4272   -0.5790   -1.7096 N.pl3     1 <0>        -0.3959
      4 C3          0.5285   -0.7959   -2.7189 C.2       1 <0>         0.0365
      5 C4          0.4408    0.3511   -3.4242 C.2       1 <0>         0.0162
      6 N2          1.2592    1.2516   -2.8703 N.pl3     1 <0>        -0.4643
      7 C5          1.8592    0.7113   -1.8306 C.cat     1 <0>         0.3957
      8 C6          2.8323    1.3815   -0.9511 C.2       1 <0>        -0.1722
      9 C7          3.7674    2.3140   -1.2763 C.2       1 <0>        -0.0294
     10 C8          4.6118    2.8383   -0.2810 C.ar      1 <0>         0.1262
     11 C9          4.4031    2.3277    1.0191 C.ar      1 <0>        -0.1867
     12 S1          3.0703    1.1763    0.8056 S.3       1 <0>         0.1816
     13 C10         5.1578    2.7499    2.0991 C.ar      1 <0>         0.2078
     14 C11         6.1449    3.7064    1.8713 C.ar      1 <0>        -0.2029
     15 C12         6.3171    4.1812    0.5815 C.ar      1 <0>         0.1691
     16 N3          5.5887    3.7641   -0.4224 N.ar      1 <0>        -0.4600
     17 O1          4.9428    2.2483    3.3420 O.3       1 <0>        -0.2307
     18 C13         5.7898    2.6241    4.3375 C.ar      1 <0>         0.0079
     19 C14         6.7241    1.7249    4.8292 C.ar      1 <0>        -0.0565
     20 C15         7.5847    2.1056    5.8401 C.ar      1 <0>        -0.1416
     21 C16         7.5152    3.3891    6.3652 C.ar      1 <0>         0.2095
     22 C17         6.5806    4.2904    5.8736 C.ar      1 <0>        -0.1608
     23 C18         5.7228    3.9105    4.8579 C.ar      1 <0>         0.1177
     24 F1          4.8163    4.7883    4.3752 F         1 <0>        -0.1199
     25 N4          8.3878    3.7745    7.3914 N.am      1 <0>        -0.6697
     26 C19         8.0274    4.7461    8.2531 C.2       1 <0>         0.7310
     27 O2          7.0117    5.3849    8.0586 O.2       1 <0>        -0.5017
     28 N5          8.7931    5.0094    9.3306 N.am      1 <0>        -0.5852
     29 C20        10.0991    4.3976    9.6177 C.3       1 <0>         0.0677
     30 C21        10.5253    5.0451   10.9496 C.3       1 <0>         0.0877
     31 N6          9.4141    5.9529   11.2715 N.am      1 <0>        -0.5608
     32 C22         8.4879    5.8741   10.3070 C.2       1 <0>         0.7073
     33 O3          7.4617    6.5253   10.3187 O.2       1 <0>        -0.5028
     34 C23         9.3389    6.7732   12.4027 C.ar      1 <0>         0.1767
     35 C24         8.1562    7.4355   12.7046 C.ar      1 <0>        -0.1495
     36 C25         8.0851    8.2440   13.8220 C.ar      1 <0>        -0.0888
     37 C26         9.1901    8.3949   14.6396 C.ar      1 <0>        -0.1384
     38 C27        10.3694    7.7371   14.3414 C.ar      1 <0>        -0.0909
     39 C28        10.4451    6.9222   13.2289 C.ar      1 <0>        -0.1532
     40 H1          1.1263   -0.3446    0.9496 H         1 <0>         0.0682
     41 H2         -0.0589   -1.5155    0.3229 H         1 <0>         0.0806
     42 H3          1.3002   -2.0754    1.3267 H         1 <0>         0.1073
     43 H4          2.8926   -1.3863   -0.4447 H         1 <0>         0.1193
     44 H5          1.7074   -2.5571   -1.0713 H         1 <0>         0.1338
     45 H6         -0.0090   -1.7122   -2.9139 H         1 <0>         0.2299
     46 H7         -0.1844    0.5140   -4.2897 H         1 <0>         0.2306
     47 H8          3.8618    2.6513   -2.2979 H         1 <0>         0.1609
     48 H9          6.7608    4.0691    2.6810 H         1 <0>         0.1584
     49 H10         7.0805    4.9227    0.3976 H         1 <0>         0.1799
     50 H11         6.7786    0.7262    4.4215 H         1 <0>         0.1528
     51 H12         8.3118    1.4045    6.2226 H         1 <0>         0.1507
     52 H13         6.5262    5.2888    6.2817 H         1 <0>         0.1817
     53 H14         9.2514    3.3421    7.4816 H         1 <0>         0.4181
     54 H15         9.9992    3.3182    9.7317 H         1 <0>         0.1060
     55 H16        10.8144    4.6356    8.8304 H         1 <0>         0.1063
     56 H17        10.6370    4.2872   11.7250 H         1 <0>         0.1036
     57 H18        11.4522    5.6046   10.8237 H         1 <0>         0.1028
     58 H19         7.2931    7.3187   12.0661 H         1 <0>         0.1533
     59 H20         7.1656    8.7594   14.0574 H         1 <0>         0.1297
     60 H21         9.1321    9.0280   15.5126 H         1 <0>         0.1268
     61 H22        11.2309    7.8575   14.9815 H         1 <0>         0.1303
     62 H23        11.3650    6.4053   12.9990 H         1 <0>         0.1264
     63 H24         1.3877    2.1608   -3.1829 H         1 <0>         0.4648
@<TRIPOS>BOND
     1    1    2 1
     2    1   40 1
     3    1   41 1
     4    1   42 1
     5    2    3 1
     6    2   43 1
     7    2   44 1
     8    3    7 1
     9    3    4 1
    10    4    5 2
    11    4   45 1
    12    5    6 1
    13    5   46 1
    14    6    7 2
    15    6   63 1
    16    7    8 1
    17    8   12 1
    18    8    9 2
    19    9   10 1
    20    9   47 1
    21   10   16 ar
    22   10   11 ar
    23   11   12 1
    24   11   13 ar
    25   13   14 ar
    26   13   17 1
    27   14   15 ar
    28   14   48 1
    29   15   16 ar
    30   15   49 1
    31   17   18 1
    32   18   23 ar
    33   18   19 ar
    34   19   20 ar
    35   19   50 1
    36   20   21 ar
    37   20   51 1
    38   21   22 ar
    39   21   25 1
    40   22   23 ar
    41   22   52 1
    42   23   24 1
    43   25   26 am
    44   25   53 1
    45   26   27 2
    46   26   28 am
    47   28   32 am
    48   28   29 1
    49   29   30 1
    50   29   54 1
    51   29   55 1
    52   30   31 1
    53   30   56 1
    54   30   57 1
    55   31   32 am
    56   31   34 1
    57   32   33 2
    58   34   39 ar
    59   34   35 ar
    60   35   36 ar
    61   35   58 1
    62   36   37 ar
    63   36   59 1
    64   37   38 ar
    65   37   60 1
    66   38   39 ar
    67   38   61 1
    68   39   62 1
@<TRIPOS>MOLECULE
CHEMBL204700
   56    59     0     0     0
SMALL
USER_CHARGES

@<TRIPOS>ATOM
      1 C1         -0.0034    1.3222    0.0012 C.ar      1 <0>        -0.3295
      2 C2          1.1992    2.0217   -0.0115 C.ar      1 <0>         0.4512
      3 N1          2.3431    1.3401   -0.0250 N.ar      1 <0>        -0.5331
      4 C3          2.3453    0.0226   -0.0264 C.ar      1 <0>         0.3822
      5 N2          1.2283   -0.6757   -0.0151 N.ar      1 <0>        -0.5923
      6 C4          0.0430   -0.0687   -0.0008 C.ar      1 <0>         0.4573
      7 N3         -1.1274   -0.8115    0.0119 N.pl3     1 <0>        -0.6183
      8 C5         -1.0976   -2.2666    0.2261 C.3       1 <0>         0.1046
      9 C6         -2.1001   -2.6156    1.3310 C.3       1 <0>        -0.0216
     10 N4         -3.4217   -2.0820    0.9779 N.4       1 <0>        -0.3827
     11 C7         -3.3740   -0.6150    0.9367 C.3       1 <0>        -0.0263
     12 C8         -2.4351   -0.1661   -0.1822 C.3       1 <0>         0.1005
     13 C9         -4.4049   -2.5102    1.9818 C.3       1 <0>        -0.0086
     14 C10        -5.8026   -2.0612    1.5507 C.3       1 <0>        -0.1477
     15 C11        -6.8266   -2.5072    2.5963 C.3       1 <0>         0.0566
     16 N5         -8.1686   -2.0761    2.1825 N.3       1 <0>        -0.5369
     17 C12        -8.2790   -0.6102    2.1975 C.3       1 <0>         0.0134
     18 C13        -9.6700   -0.2035    1.7037 C.3       1 <0>         0.0604
     19 O1        -10.6624   -0.8297    2.5213 O.3       1 <0>        -0.3801
     20 C14       -10.5845   -2.2577    2.5294 C.3       1 <0>         0.0606
     21 C15        -9.2028   -2.6851    3.0315 C.3       1 <0>         0.0175
     22 N6          1.2066    3.4102   -0.0106 N.pl3     1 <0>        -0.5895
     23 C16         2.4033    4.0947    0.0851 C.2       1 <0>         0.2813
     24 N7          3.6280    3.6019    0.0895 N.2       1 <0>        -0.5132
     25 C17         4.6784    4.3798    0.1874 C.2       1 <0>         0.1553
     26 C18         4.4296    5.7411    0.2853 C.2       1 <0>        -0.1950
     27 S1          2.6453    5.7549    0.2162 S.3       1 <0>         0.2109
     28 C19         5.3489    6.8327    0.4032 C.1       1 <0>         0.2943
     29 N8          6.0782    7.6986    0.4967 N.1       1 <0>        -0.3839
     30 H1         -0.9483    1.8451    0.0167 H         1 <0>         0.1434
     31 H2          3.2903   -0.5000   -0.0375 H         1 <0>         0.2073
     32 H3         -1.3753   -2.7782   -0.6954 H         1 <0>         0.0919
     33 H4         -0.0963   -2.5715    0.5303 H         1 <0>         0.1404
     34 H5         -2.1619   -3.6987    1.4369 H         1 <0>         0.1450
     35 H6         -1.7706   -2.1765    2.2727 H         1 <0>         0.1326
     36 H7         -4.3745   -0.2239    0.7520 H         1 <0>         0.1448
     37 H8         -3.0060   -0.2364    1.8903 H         1 <0>         0.1341
     38 H9         -2.3176    0.9170   -0.1477 H         1 <0>         0.1289
     39 H10        -2.8501   -0.4620   -1.1456 H         1 <0>         0.0971
     40 H11        -4.3836   -3.5964    2.0710 H         1 <0>         0.1357
     41 H12        -4.1600   -2.0617    2.9446 H         1 <0>         0.1295
     42 H13        -5.8239   -0.9751    1.4615 H         1 <0>         0.0865
     43 H14        -6.0475   -2.5098    0.5879 H         1 <0>         0.0985
     44 H15        -6.8054   -3.5934    2.6856 H         1 <0>         0.0882
     45 H16        -6.5818   -2.0587    3.5591 H         1 <0>         0.0465
     46 H17        -8.1322   -0.2445    3.2137 H         1 <0>         0.0479
     47 H18        -7.5205   -0.1814    1.5425 H         1 <0>         0.0830
     48 H19        -9.7765    0.8794    1.7671 H         1 <0>         0.1019
     49 H20        -9.7966   -0.5224    0.6691 H         1 <0>         0.0619
     50 H21       -11.3524   -2.6603    3.1899 H         1 <0>         0.1051
     51 H22       -10.7377   -2.6363    1.5188 H         1 <0>         0.0635
     52 H23        -9.1187   -3.7709    2.9853 H         1 <0>         0.0916
     53 H24        -9.0708   -2.3526    4.0611 H         1 <0>         0.0493
     54 H25         0.3718    3.8997   -0.0771 H         1 <0>         0.4409
     55 H26         5.6827    3.9827    0.1919 H         1 <0>         0.1927
     56 H27        -3.6942   -2.4340    0.0723 H         1 <0>         0.4246
@<TRIPOS>BOND
     1    1    6 ar
     2    1    2 ar
     3    1   30 1
     4    2    3 ar
     5    2   22 1
     6    3    4 ar
     7    4    5 ar
     8    4   31 1
     9    5    6 ar
    10    6    7 1
    11    7   12 1
    12    7    8 1
    13    8    9 1
    14    8   32 1
    15    8   33 1
    16    9   10 1
    17    9   34 1
    18    9   35 1
    19   10   11 1
    20   10   13 1
    21   10   56 1
    22   11   12 1
    23   11   36 1
    24   11   37 1
    25   12   38 1
    26   12   39 1
    27   13   14 1
    28   13   40 1
    29   13   41 1
    30   14   15 1
    31   14   42 1
    32   14   43 1
    33   15   16 1
    34   15   44 1
    35   15   45 1
    36   16   21 1
    37   16   17 1
    38   17   18 1
    39   17   46 1
    40   17   47 1
    41   18   19 1
    42   18   48 1
    43   18   49 1
    44   19   20 1
    45   20   21 1
    46   20   50 1
    47   20   51 1
    48   21   52 1
    49   21   53 1
    50   22   23 1
    51   22   54 1
    52   23   27 1
    53   23   24 2
    54   24   25 1
    55   25   26 2
    56   25   55 1
    57   26   27 1
    58   26   28 1
    59   28   29 3
@<TRIPOS>MOLECULE
CHEMBL204700__1
   56    59     0     0     0
SMALL
USER_CHARGES

@<TRIPOS>ATOM
      1 C1         -0.0068    1.3385    0.0041 C.ar      1 <0>        -0.3353
      2 C2          1.1992    2.0320   -0.0083 C.ar      1 <0>         0.4437
      3 N1          2.3397    1.3449   -0.0240 N.ar      1 <0>        -0.5441
      4 C3          2.3355    0.0274   -0.0278 C.ar      1 <0>         0.3770
      5 N2          1.2151   -0.6654   -0.0168 N.ar      1 <0>        -0.5945
      6 C4          0.0327   -0.0526   -0.0004 C.ar      1 <0>         0.4627
      7 N3         -1.1413   -0.7897    0.0120 N.pl3     1 <0>        -0.6021
      8 C5         -1.1170   -2.2446    0.2261 C.3       1 <0>         0.1292
      9 C6         -2.1072   -2.5887    1.3439 C.3       1 <0>         0.0407
     10 N4         -3.4258   -2.0312    1.0143 N.3       1 <0>        -0.5361
     11 C7         -3.3822   -0.5645    0.9454 C.3       1 <0>         0.0358
     12 C8         -2.4447   -0.1366   -0.1826 C.3       1 <0>         0.1256
     13 C9         -4.4429   -2.4832    1.9731 C.3       1 <0>         0.0576
     14 C10        -5.8323   -2.0937    1.4641 C.3       1 <0>        -0.1483
     15 C11        -6.8917   -2.5644    2.4626 C.3       1 <0>        -0.0083
     16 N5         -8.2256   -2.1905    1.9739 N.4       1 <0>        -0.3847
     17 C12        -8.3439   -0.7262    1.9445 C.3       1 <0>        -0.0478
     18 C13        -9.7345   -0.3392    1.4348 C.3       1 <0>         0.0360
     19 O1        -10.7271   -0.9297    2.2785 O.3       1 <0>        -0.3564
     20 C14       -10.6380   -2.3550    2.3588 C.3       1 <0>         0.0354
     21 C15        -9.2491   -2.7457    2.8702 C.3       1 <0>        -0.0433
     22 N6          1.2135    3.4205   -0.0050 N.pl3     1 <0>        -0.5909
     23 C16         2.4136    4.0990    0.0908 C.2       1 <0>         0.2939
     24 N7          3.6359    3.6001    0.0930 N.2       1 <0>        -0.5154
     25 C17         4.6902    4.3727    0.1913 C.2       1 <0>         0.1599
     26 C18         4.4482    5.7349    0.2920 C.2       1 <0>        -0.2047
     27 S1          2.6639    5.7577    0.2248 S.3       1 <0>         0.1972
     28 C19         5.3730    6.8218    0.4110 C.1       1 <0>         0.2986
     29 N8          6.1066    7.6840    0.5054 N.1       1 <0>        -0.3916
     30 H1         -0.9491    1.8660    0.0213 H         1 <0>         0.1403
     31 H2          3.2779   -0.4999   -0.0406 H         1 <0>         0.2025
     32 H3         -1.4092   -2.7547   -0.6918 H         1 <0>         0.0745
     33 H4         -0.1136   -2.5551    0.5174 H         1 <0>         0.1056
     34 H5         -2.1841   -3.6716    1.4410 H         1 <0>         0.0932
     35 H6         -1.7569   -2.1627    2.2840 H         1 <0>         0.0441
     36 H7         -4.3837   -0.1795    0.7536 H         1 <0>         0.0854
     37 H8         -3.0141   -0.1667    1.8911 H         1 <0>         0.0445
     38 H9         -2.3187    0.9459   -0.1614 H         1 <0>         0.0914
     39 H10        -2.8670   -0.4402   -1.1405 H         1 <0>         0.0785
     40 H11        -4.3856   -3.5664    2.0800 H         1 <0>         0.0889
     41 H12        -4.2652   -2.0127    2.9401 H         1 <0>         0.0458
     42 H13        -5.8896   -1.0105    1.3572 H         1 <0>         0.0865
     43 H14        -6.0100   -2.5642    0.4970 H         1 <0>         0.0985
     44 H15        -6.8343   -3.6477    2.5695 H         1 <0>         0.1352
     45 H16        -6.7139   -2.0940    3.4296 H         1 <0>         0.1301
     46 H17        -8.2018   -0.3297    2.9498 H         1 <0>         0.1386
     47 H18        -7.5851   -0.3133    1.2798 H         1 <0>         0.1421
     48 H19        -9.8399    0.7455    1.4529 H         1 <0>         0.1418
     49 H20        -9.8619   -0.7011    0.4146 H         1 <0>         0.0817
     50 H21       -11.3973   -2.7291    3.0455 H         1 <0>         0.1427
     51 H22       -10.7963   -2.7858    1.3701 H         1 <0>         0.0819
     52 H23        -9.1623   -3.8320    2.8926 H         1 <0>         0.1435
     53 H24        -9.1066   -2.3484    3.8751 H         1 <0>         0.1388
     54 H25         0.3810    3.9142   -0.0698 H         1 <0>         0.4390
     55 H26         5.6925    3.9706    0.1940 H         1 <0>         0.1910
     56 H27        -8.3581   -2.5577    1.0435 H         1 <0>         0.4239
@<TRIPOS>BOND
     1    1    6 ar
     2    1    2 ar
     3    1   30 1
     4    2    3 ar
     5    2   22 1
     6    3    4 ar
     7    4    5 ar
     8    4   31 1
     9    5    6 ar
    10    6    7 1
    11    7   12 1
    12    7    8 1
    13    8    9 1
    14    8   32 1
    15    8   33 1
    16    9   10 1
    17    9   34 1
    18    9   35 1
    19   10   11 1
    20   10   13 1
    21   11   12 1
    22   11   36 1
    23   11   37 1
    24   12   38 1
    25   12   39 1
    26   13   14 1
    27   13   40 1
    28   13   41 1
    29   14   15 1
    30   14   42 1
    31   14   43 1
    32   15   16 1
    33   15   44 1
    34   15   45 1
    35   16   21 1
    36   16   17 1
    37   16   56 1
    38   17   18 1
    39   17   46 1
    40   17   47 1
    41   18   19 1
    42   18   48 1
    43   18   49 1
    44   19   20 1
    45   20   21 1
    46   20   50 1
    47   20   51 1
    48   21   52 1
    49   21   53 1
    50   22   23 1
    51   22   54 1
    52   23   27 1
    53   23   24 2
    54   24   25 1
    55   25   26 2
    56   25   55 1
    57   26   27 1
    58   26   28 1
    59   28   29 3
@<TRIPOS>MOLECULE
CHEMBL204700__2
   57    60     0     0     0
SMALL
USER_CHARGES

@<TRIPOS>ATOM
      1 C1         -0.0034    1.3222    0.0012 C.ar      1 <0>        -0.3308
      2 C2          1.1992    2.0217   -0.0115 C.ar      1 <0>         0.4546
      3 N1          2.3431    1.3401   -0.0250 N.ar      1 <0>        -0.5288
      4 C3          2.3453    0.0226   -0.0264 C.ar      1 <0>         0.3857
      5 N2          1.2283   -0.6757   -0.0151 N.ar      1 <0>        -0.5925
      6 C4          0.0430   -0.0687   -0.0008 C.ar      1 <0>         0.4527
      7 N3         -1.1274   -0.8115    0.0119 N.pl3     1 <0>        -0.6203
      8 C5         -1.0976   -2.2666    0.2261 C.3       1 <0>         0.1041
      9 C6         -2.1001   -2.6156    1.3310 C.3       1 <0>        -0.0220
     10 N4         -3.4217   -2.0820    0.9779 N.4       1 <0>        -0.3840
     11 C7         -3.3740   -0.6150    0.9367 C.3       1 <0>        -0.0280
     12 C8         -2.4351   -0.1661   -0.1822 C.3       1 <0>         0.1003
     13 C9         -4.4049   -2.5102    1.9818 C.3       1 <0>        -0.0049
     14 C10        -5.8026   -2.0612    1.5507 C.3       1 <0>        -0.1848
     15 C11        -6.8266   -2.5072    2.5963 C.3       1 <0>        -0.0045
     16 N5         -8.1686   -2.0761    2.1825 N.4       1 <0>        -0.3863
     17 C12        -8.2323   -0.6081    2.1789 C.3       1 <0>        -0.0498
     18 C13        -9.6313   -0.1615    1.7472 C.3       1 <0>         0.0342
     19 O1        -10.6012   -0.7273    2.6331 O.3       1 <0>        -0.3507
     20 C14       -10.5626   -2.1560    2.6895 C.3       1 <0>         0.0337
     21 C15        -9.1653   -2.6063    3.1230 C.3       1 <0>        -0.0437
     22 N6          1.2066    3.4102   -0.0106 N.pl3     1 <0>        -0.5890
     23 C16         2.4033    4.0947    0.0851 C.2       1 <0>         0.2723
     24 N7          3.6280    3.6019    0.0895 N.2       1 <0>        -0.5106
     25 C17         4.6784    4.3798    0.1874 C.2       1 <0>         0.1520
     26 C18         4.4296    5.7411    0.2853 C.2       1 <0>        -0.1858
     27 S1          2.6453    5.7549    0.2162 S.3       1 <0>         0.2153
     28 C19         5.3489    6.8327    0.4032 C.1       1 <0>         0.2895
     29 N8          6.0782    7.6986    0.4967 N.1       1 <0>        -0.3761
     30 H1         -0.9483    1.8451    0.0167 H         1 <0>         0.1416
     31 H2          3.2903   -0.5000   -0.0375 H         1 <0>         0.2094
     32 H3         -1.3753   -2.7782   -0.6954 H         1 <0>         0.0932
     33 H4         -0.0963   -2.5715    0.5303 H         1 <0>         0.1450
     34 H5         -2.1619   -3.6987    1.4369 H         1 <0>         0.1481
     35 H6         -1.7706   -2.1765    2.2727 H         1 <0>         0.1371
     36 H7         -4.3745   -0.2239    0.7520 H         1 <0>         0.1384
     37 H8         -3.0060   -0.2364    1.8903 H         1 <0>         0.1390
     38 H9         -2.3176    0.9170   -0.1477 H         1 <0>         0.1323
     39 H10        -2.8501   -0.4620   -1.1456 H         1 <0>         0.0966
     40 H11        -4.3836   -3.5964    2.0710 H         1 <0>         0.1455
     41 H12        -4.1600   -2.0617    2.9446 H         1 <0>         0.1416
     42 H13        -5.8239   -0.9751    1.4615 H         1 <0>         0.1094
     43 H14        -6.0475   -2.5098    0.5879 H         1 <0>         0.1133
     44 H15        -6.8054   -3.5934    2.6856 H         1 <0>         0.1451
     45 H16        -6.5818   -2.0587    3.5591 H         1 <0>         0.1423
     46 H17        -8.0237   -0.2327    3.1808 H         1 <0>         0.1435
     47 H18        -7.4933   -0.2138    1.4815 H         1 <0>         0.1373
     48 H19        -9.6941    0.9260    1.7853 H         1 <0>         0.1454
     49 H20        -9.8245   -0.5025    0.7301 H         1 <0>         0.0836
     50 H21       -11.2995   -2.5119    3.4095 H         1 <0>         0.1483
     51 H22       -10.7878   -2.5653    1.7046 H         1 <0>         0.0849
     52 H23        -9.1190   -3.6953    3.1263 H         1 <0>         0.1476
     53 H24        -8.9565   -2.2302    4.1244 H         1 <0>         0.1434
     54 H25         0.3718    3.8997   -0.0771 H         1 <0>         0.4403
     55 H26         5.6827    3.9827    0.1919 H         1 <0>         0.1943
     56 H27        -3.6942   -2.4340    0.0723 H         1 <0>         0.4262
     57 H28        -8.3626   -2.4237    1.2553 H         1 <0>         0.4258
@<TRIPOS>BOND
     1    1    6 ar
     2    1    2 ar
     3    1   30 1
     4    2    3 ar
     5    2   22 1
     6    3    4 ar
     7    4    5 ar
     8    4   31 1
     9    5    6 ar
    10    6    7 1
    11    7   12 1
    12    7    8 1
    13    8    9 1
    14    8   32 1
    15    8   33 1
    16    9   10 1
    17    9   34 1
    18    9   35 1
    19   10   11 1
    20   10   13 1
    21   10   56 1
    22   11   12 1
    23   11   36 1
    24   11   37 1
    25   12   38 1
    26   12   39 1
    27   13   14 1
    28   13   40 1
    29   13   41 1
    30   14   15 1
    31   14   42 1
    32   14   43 1
    33   15   16 1
    34   15   44 1
    35   15   45 1
    36   16   21 1
    37   16   17 1
    38   16   57 1
    39   17   18 1
    40   17   46 1
    41   17   47 1
    42   18   19 1
    43   18   48 1
    44   18   49 1
    45   19   20 1
    46   20   21 1
    47   20   50 1
    48   20   51 1
    49   21   52 1
    50   21   53 1
    51   22   23 1
    52   22   54 1
    53   23   27 1
    54   23   24 2
    55   24   25 1
    56   25   26 2
    57   25   55 1
    58   26   27 1
    59   26   28 1
    60   28   29 3
@<TRIPOS>MOLECULE
CHEMBL380735
   52    55     0     0     0
SMALL
USER_CHARGES

@<TRIPOS>ATOM
      1 C1         -0.0068    1.3385    0.0041 C.ar      1 <0>        -0.3350
      2 C2          1.1992    2.0320   -0.0083 C.ar      1 <0>         0.4446
      3 N1          2.3397    1.3449   -0.0240 N.ar      1 <0>        -0.5429
      4 C3          2.3355    0.0274   -0.0278 C.ar      1 <0>         0.3775
      5 N2          1.2151   -0.6654   -0.0168 N.ar      1 <0>        -0.5946
      6 C4          0.0327   -0.0526   -0.0004 C.ar      1 <0>         0.4621
      7 N3         -1.1413   -0.7897    0.0120 N.pl3     1 <0>        -0.6036
      8 C5         -1.1170   -2.2446    0.2261 C.3       1 <0>         0.1292
      9 C6         -2.1072   -2.5887    1.3439 C.3       1 <0>         0.0415
     10 N4         -3.4258   -2.0312    1.0143 N.3       1 <0>        -0.5296
     11 C7         -3.3822   -0.5645    0.9454 C.3       1 <0>         0.0317
     12 C8         -2.4447   -0.1366   -0.1826 C.3       1 <0>         0.1257
     13 C9         -4.4429   -2.4832    1.9731 C.3       1 <0>         0.0288
     14 C10        -5.8323   -2.0937    1.4641 C.3       1 <0>        -0.0058
     15 N5         -6.8494   -2.5457    2.4228 N.4       1 <0>        -0.3931
     16 C11        -6.7511   -1.7625    3.6811 C.3       1 <0>        -0.0081
     17 C12        -8.1549   -1.9317    4.3145 C.3       1 <0>        -0.1455
     18 C13        -9.0941   -1.9012    3.0870 C.3       1 <0>        -0.1455
     19 C14        -8.2042   -2.2844    1.8901 C.3       1 <0>        -0.0066
     20 N6          1.2135    3.4205   -0.0050 N.pl3     1 <0>        -0.5908
     21 C15         2.4136    4.0990    0.0908 C.2       1 <0>         0.2923
     22 N7          3.6359    3.6001    0.0930 N.2       1 <0>        -0.5151
     23 C16         4.6902    4.3727    0.1913 C.2       1 <0>         0.1593
     24 C17         4.4482    5.7349    0.2920 C.2       1 <0>        -0.2035
     25 S1          2.6639    5.7577    0.2248 S.3       1 <0>         0.1989
     26 C18         5.3730    6.8218    0.4110 C.1       1 <0>         0.2980
     27 N8          6.1066    7.6840    0.5054 N.1       1 <0>        -0.3906
     28 H1         -0.9491    1.8660    0.0213 H         1 <0>         0.1406
     29 H2          3.2779   -0.4999   -0.0406 H         1 <0>         0.2030
     30 H3         -1.4092   -2.7547   -0.6918 H         1 <0>         0.0763
     31 H4         -0.1136   -2.5551    0.5174 H         1 <0>         0.1079
     32 H5         -2.1841   -3.6716    1.4410 H         1 <0>         0.0956
     33 H6         -1.7569   -2.1627    2.2840 H         1 <0>         0.0476
     34 H7         -4.3837   -0.1795    0.7536 H         1 <0>         0.0874
     35 H8         -3.0141   -0.1667    1.8911 H         1 <0>         0.0492
     36 H9         -2.3187    0.9459   -0.1614 H         1 <0>         0.0943
     37 H10        -2.8670   -0.4402   -1.1405 H         1 <0>         0.0810
     38 H11        -4.3856   -3.5664    2.0800 H         1 <0>         0.0989
     39 H12        -4.2652   -2.0127    2.9401 H         1 <0>         0.0569
     40 H13        -5.8896   -1.0105    1.3572 H         1 <0>         0.1279
     41 H14        -6.0100   -2.5642    0.4970 H         1 <0>         0.1403
     42 H15        -5.9823   -2.1771    4.3331 H         1 <0>         0.1338
     43 H16        -6.5499   -0.7130    3.4663 H         1 <0>         0.1320
     44 H17        -8.2308   -2.8867    4.8346 H         1 <0>         0.0988
     45 H18        -8.3756   -1.1050    4.9897 H         1 <0>         0.1166
     46 H19        -9.8985   -2.6267    3.2079 H         1 <0>         0.1061
     47 H20        -9.5036   -0.9005    2.9488 H         1 <0>         0.1039
     48 H21        -8.1698   -1.4626    1.1748 H         1 <0>         0.1307
     49 H22        -8.5939   -3.1820    1.4100 H         1 <0>         0.1336
     50 H23         0.3810    3.9142   -0.0698 H         1 <0>         0.4393
     51 H24         5.6925    3.9706    0.1940 H         1 <0>         0.1912
     52 H25        -6.7347   -3.5296    2.6144 H         1 <0>         0.4276
@<TRIPOS>BOND
     1    1    6 ar
     2    1    2 ar
     3    1   28 1
     4    2    3 ar
     5    2   20 1
     6    3    4 ar
     7    4    5 ar
     8    4   29 1
     9    5    6 ar
    10    6    7 1
    11    7   12 1
    12    7    8 1
    13    8    9 1
    14    8   30 1
    15    8   31 1
    16    9   10 1
    17    9   32 1
    18    9   33 1
    19   10   11 1
    20   10   13 1
    21   11   12 1
    22   11   34 1
    23   11   35 1
    24   12   36 1
    25   12   37 1
    26   13   14 1
    27   13   38 1
    28   13   39 1
    29   14   15 1
    30   14   40 1
    31   14   41 1
    32   15   19 1
    33   15   16 1
    34   15   52 1
    35   16   17 1
    36   16   42 1
    37   16   43 1
    38   17   18 1
    39   17   44 1
    40   17   45 1
    41   18   19 1
    42   18   46 1
    43   18   47 1
    44   19   48 1
    45   19   49 1
    46   20   21 1
    47   20   50 1
    48   21   25 1
    49   21   22 2
    50   22   23 1
    51   23   24 2
    52   23   51 1
    53   24   25 1
    54   24   26 1
    55   26   27 3
@<TRIPOS>MOLECULE
CHEMBL380735__1
   53    56     0     0     0
SMALL
USER_CHARGES

@<TRIPOS>ATOM
      1 C1          0.0112    1.1347   -0.2342 C.ar      1 <0>        -0.2916
      2 C2          1.1133    1.9529   -0.0069 C.ar      1 <0>         0.4617
      3 N1          2.2970    1.3913    0.2311 N.ar      1 <0>        -0.5634
      4 C3          2.4317    0.0809    0.2524 C.ar      1 <0>         0.4396
      5 N2          1.4131   -0.7274    0.0416 N.ar      1 <0>        -0.5352
      6 C4          0.1963   -0.2443   -0.2025 C.ar      1 <0>         0.4945
      7 N3         -0.8701   -1.1023   -0.4223 N.pl3     1 <0>        -0.5521
      8 C5         -0.7468   -2.5434   -0.1556 C.3       1 <0>         0.1098
      9 C6         -1.9210   -2.9771    0.7284 C.3       1 <0>         0.0401
     10 N4         -3.1826   -2.5679    0.0967 N.3       1 <0>        -0.5316
     11 C7         -3.2736   -1.1059   -0.0139 C.3       1 <0>         0.0297
     12 C8         -2.1567   -0.5947   -0.9225 C.3       1 <0>         0.1064
     13 C9         -4.3366   -3.1137    0.8236 C.3       1 <0>         0.0290
     14 C10        -5.6097   -2.8814    0.0075 C.3       1 <0>        -0.0059
     15 N5         -6.7637   -3.4271    0.7344 N.4       1 <0>        -0.3938
     16 C11        -7.0280   -2.6220    1.9543 C.3       1 <0>        -0.0082
     17 C12        -8.5131   -2.9321    2.2689 C.3       1 <0>        -0.1460
     18 C13        -9.1534   -3.0177    0.8644 C.3       1 <0>        -0.1463
     19 C14        -7.9851   -3.3189   -0.0926 C.3       1 <0>        -0.0065
     20 N6          0.9810    3.3350   -0.0283 N.pl3     1 <0>        -0.5837
     21 C15        -0.2726    3.9075   -0.1312 C.2       1 <0>         0.2347
     22 N7         -1.4478    3.3061   -0.1292 N.2       1 <0>        -0.5530
     23 C16        -2.5641    3.9848   -0.2354 C.2       1 <0>         0.1363
     24 C17        -2.4392    5.3617   -0.3493 C.2       1 <0>        -0.1568
     25 S1         -0.6634    5.5375   -0.2815 S.3       1 <0>         0.3212
     26 C18        -3.4532    6.3645   -0.4794 C.1       1 <0>         0.2735
     27 N8         -4.2577    7.1599   -0.5825 N.1       1 <0>        -0.3465
     28 H1         -0.9635    1.5587   -0.4258 H         1 <0>         0.2218
     29 H2          3.4057   -0.3429    0.4480 H         1 <0>         0.2524
     30 H3         -0.7740   -3.0935   -1.0963 H         1 <0>         0.0996
     31 H4          0.1926   -2.7413    0.3605 H         1 <0>         0.1159
     32 H5         -1.9075   -4.0607    0.8453 H         1 <0>         0.1083
     33 H6         -1.8339   -2.5041    1.7066 H         1 <0>         0.0528
     34 H7         -4.2409   -0.8325   -0.4353 H         1 <0>         0.1002
     35 H8         -3.1676   -0.6591    0.9746 H         1 <0>         0.0556
     36 H9         -2.1489    0.4952   -0.9132 H         1 <0>         0.1090
     37 H10        -2.3220   -0.9538   -1.9383 H         1 <0>         0.1036
     38 H11        -4.1951   -4.1831    0.9796 H         1 <0>         0.1039
     39 H12        -4.4274   -2.6146    1.7884 H         1 <0>         0.0614
     40 H13        -5.7513   -1.8119   -0.1485 H         1 <0>         0.1275
     41 H14        -5.5190   -3.3804   -0.9573 H         1 <0>         0.1415
     42 H15        -6.3858   -2.9437    2.7742 H         1 <0>         0.1334
     43 H16        -6.8915   -1.5598    1.7513 H         1 <0>         0.1314
     44 H17        -8.6058   -3.8830    2.7936 H         1 <0>         0.1002
     45 H18        -8.9613   -2.1252    2.8486 H         1 <0>         0.1179
     46 H19        -9.8868   -3.8234    0.8314 H         1 <0>         0.1082
     47 H20        -9.6211   -2.0684    0.6034 H         1 <0>         0.1050
     48 H21        -7.8757   -2.5073   -0.8120 H         1 <0>         0.1309
     49 H22        -8.1651   -4.2591   -0.6139 H         1 <0>         0.1353
     50 H23         1.7684    3.8985    0.0290 H         1 <0>         0.4498
     51 H24        -3.5284    3.4986   -0.2347 H         1 <0>         0.2008
     52 H25        -6.5955   -4.3907    0.9821 H         1 <0>         0.4290
     53 H26         3.0705    1.9545    0.3905 H         1 <0>         0.4489
@<TRIPOS>BOND
     1    1    6 ar
     2    1    2 ar
     3    1   28 1
     4    2    3 ar
     5    2   20 1
     6    3    4 ar
     7    3   53 1
     8    4    5 ar
     9    4   29 1
    10    5    6 ar
    11    6    7 1
    12    7   12 1
    13    7    8 1
    14    8    9 1
    15    8   30 1
    16    8   31 1
    17    9   10 1
    18    9   32 1
    19    9   33 1
    20   10   11 1
    21   10   13 1
    22   11   12 1
    23   11   34 1
    24   11   35 1
    25   12   36 1
    26   12   37 1
    27   13   14 1
    28   13   38 1
    29   13   39 1
    30   14   15 1
    31   14   40 1
    32   14   41 1
    33   15   19 1
    34   15   16 1
    35   15   52 1
    36   16   17 1
    37   16   42 1
    38   16   43 1
    39   17   18 1
    40   17   44 1
    41   17   45 1
    42   18   19 1
    43   18   46 1
    44   18   47 1
    45   19   48 1
    46   19   49 1
    47   20   21 1
    48   20   50 1
    49   21   25 1
    50   21   22 2
    51   22   23 1
    52   23   24 2
    53   23   51 1
    54   24   25 1
    55   24   26 1
    56   26   27 3
@<TRIPOS>MOLECULE
CHEMBL380735__2
   53    56     0     0     0
SMALL
USER_CHARGES

@<TRIPOS>ATOM
      1 C1         -2.4628    1.2382    0.0295 C.ar      1 <0>        -0.3112
      2 C2         -2.3140   -0.1446    0.0196 C.ar      1 <0>         0.5023
      3 N1         -1.0871   -0.6628    0.0273 N.ar      1 <0>        -0.4840
      4 C3         -0.0245    0.1154    0.0440 C.ar      1 <0>         0.4334
      5 N2         -0.1235    1.4292    0.0542 N.ar      1 <0>        -0.5718
      6 C4         -1.3143    2.0249    0.0412 C.ar      1 <0>         0.4911
      7 N3         -1.4091    3.4078    0.0508 N.pl3     1 <0>        -0.5864
      8 C5         -0.2081    4.2477   -0.0741 C.3       1 <0>         0.1019
      9 C6         -0.4450    5.2732   -1.1879 C.3       1 <0>         0.0404
     10 N4         -1.6897    6.0053   -0.9185 N.3       1 <0>        -0.5305
     11 C7         -2.8514    5.1065   -0.9379 C.3       1 <0>         0.0262
     12 C8         -2.7139    4.0742    0.1800 C.3       1 <0>         0.1151
     13 C9         -1.8650    7.1128   -1.8675 C.3       1 <0>         0.0290
     14 C10        -3.0266    7.9973   -1.4102 C.3       1 <0>        -0.0057
     15 N5         -3.2019    9.1048   -2.3592 N.4       1 <0>        -0.3940
     16 C11        -3.6997    8.5902   -3.6606 C.3       1 <0>        -0.0084
     17 C12        -4.3501    9.8377   -4.3097 C.3       1 <0>        -0.1461
     18 C13        -5.0011   10.5547   -3.1047 C.3       1 <0>        -0.1465
     19 C14        -4.2413   10.0362   -1.8697 C.3       1 <0>        -0.0064
     20 N6         -3.4284   -0.9729    0.0025 N.pl3     1 <0>        -0.5589
     21 C15        -3.2708   -2.3409   -0.1134 C.2       1 <0>         0.2224
     22 N7         -2.1483   -3.0358   -0.1231 N.2       1 <0>        -0.5018
     23 C16        -2.1526   -4.3412   -0.2410 C.2       1 <0>         0.1406
     24 C17        -3.3963   -4.9453   -0.3542 C.2       1 <0>        -0.1582
     25 S1         -4.4646   -3.5169   -0.2685 S.3       1 <0>         0.2712
     26 C18        -3.7308   -6.3305   -0.4956 C.1       1 <0>         0.2783
     27 N8         -3.9962   -7.4294   -0.6078 N.1       1 <0>        -0.3549
     28 H1         -3.4438    1.6900    0.0236 H         1 <0>         0.1829
     29 H2          0.9563   -0.3366    0.0499 H         1 <0>         0.2507
     30 H3         -0.0239    4.7654    0.8672 H         1 <0>         0.1124
     31 H4          0.6498    3.6245   -0.3265 H         1 <0>         0.0921
     32 H5          0.3894    5.9738   -1.2206 H         1 <0>         0.1122
     33 H6         -0.5258    4.7583   -2.1452 H         1 <0>         0.0563
     34 H7         -3.7624    5.6863   -0.7893 H         1 <0>         0.1040
     35 H8         -2.8987    4.5939   -1.8987 H         1 <0>         0.0572
     36 H9         -3.5118    3.3364    0.0955 H         1 <0>         0.1090
     37 H10        -2.7752    4.5749    1.1462 H         1 <0>         0.1075
     38 H11        -0.9509    7.7053   -1.9073 H         1 <0>         0.1050
     39 H12        -2.0815    6.7119   -2.8577 H         1 <0>         0.0632
     40 H13        -3.9406    7.4048   -1.3704 H         1 <0>         0.1278
     41 H14        -2.8101    8.3982   -0.4200 H         1 <0>         0.1418
     42 H15        -2.8739    8.2251   -4.2712 H         1 <0>         0.1333
     43 H16        -4.4412    7.8063   -3.5061 H         1 <0>         0.1316
     44 H17        -3.5929   10.4708   -4.7722 H         1 <0>         0.1005
     45 H18        -5.1059    9.5437   -5.0381 H         1 <0>         0.1186
     46 H19        -4.8814   11.6341   -3.1970 H         1 <0>         0.1087
     47 H20        -6.0575   10.2950   -3.0356 H         1 <0>         0.1056
     48 H21        -4.9273    9.5110   -1.2051 H         1 <0>         0.1311
     49 H22        -3.7753   10.8694   -1.3437 H         1 <0>         0.1356
     50 H23        -4.3175   -0.5913    0.0719 H         1 <0>         0.4536
     51 H24        -1.2378   -4.9152   -0.2499 H         1 <0>         0.2009
     52 H25        -2.3291    9.5942   -2.4885 H         1 <0>         0.4291
     53 H26         0.6819    1.9697    0.0668 H         1 <0>         0.4423
@<TRIPOS>BOND
     1    1    2 ar
     2    1   28 1
     3    1    6 ar
     4    2   20 1
     5    2    3 ar
     6    3    4 ar
     7    4    5 ar
     8    4   29 1
     9    5    6 ar
    10    5   53 1
    11    6    7 1
    12    7   12 1
    13    7    8 1
    14    8    9 1
    15    8   30 1
    16    8   31 1
    17    9   10 1
    18    9   32 1
    19    9   33 1
    20   10   11 1
    21   10   13 1
    22   11   12 1
    23   11   34 1
    24   11   35 1
    25   12   36 1
    26   12   37 1
    27   13   14 1
    28   13   38 1
    29   13   39 1
    30   14   15 1
    31   14   40 1
    32   14   41 1
    33   15   19 1
    34   15   16 1
    35   15   52 1
    36   16   17 1
    37   16   42 1
    38   16   43 1
    39   17   18 1
    40   17   44 1
    41   17   45 1
    42   18   19 1
    43   18   46 1
    44   18   47 1
    45   19   48 1
    46   19   49 1
    47   20   21 1
    48   20   50 1
    49   21   25 1
    50   21   22 2
    51   22   23 1
    52   23   24 2
    53   23   51 1
    54   24   25 1
    55   24   26 1
    56   26   27 3
@<TRIPOS>MOLECULE
CHEMBL115480
   59    63     0     0     0
SMALL
USER_CHARGES

@<TRIPOS>ATOM
      1 C1         -0.0167    1.3793    0.0096 C.ar      1 <0>        -0.1174
      2 C2          1.1685    2.0928    0.0021 C.ar      1 <0>        -0.1179
      3 C3          2.3774    1.4278   -0.0134 C.ar      1 <0>        -0.1085
      4 C4          2.4029    0.0333   -0.0211 C.ar      1 <0>        -0.0066
      5 C5          1.2046   -0.6805   -0.0130 C.ar      1 <0>        -0.0949
      6 C6          0.0021   -0.0041    0.0020 C.ar      1 <0>        -0.1178
      7 C7          3.6973   -0.6868   -0.0382 C.2       1 <0>        -0.1749
      8 C8          4.7684   -0.4487   -0.9074 C.2       1 <0>         0.1171
      9 N1          5.7397   -1.2806   -0.6205 N.2       1 <0>        -0.3000
     10 N2          5.3474   -2.0972    0.4460 N.pl3     1 <0>        -0.3151
     11 C9          4.0796   -1.7281    0.8157 C.2       1 <0>         0.2626
     12 N3          3.4513   -2.3436    1.8237 N.2       1 <0>        -0.4430
     13 C10         4.0298   -3.3141    2.4885 C.2       1 <0>         0.1967
     14 C11         5.3371   -3.7260    2.1451 C.2       1 <0>        -0.1786
     15 C12         5.9812   -3.1047    1.1092 C.2       1 <0>         0.2038
     16 C13         5.9986   -4.8215    2.8906 C.2       1 <0>         0.0830
     17 C14         7.3084   -5.2318    2.5532 C.2       1 <0>        -0.2156
     18 C15         7.8963   -6.2317    3.2437 C.2       1 <0>         0.1326
     19 N4          7.2466   -6.8537    4.2628 N.am      1 <0>        -0.5032
     20 C16         5.9988   -6.4943    4.6159 C.2       1 <0>         0.5212
     21 O1          5.4367   -7.0687    5.5352 O.2       1 <0>        -0.5434
     22 C17         5.3453   -5.4584    3.9356 C.2       1 <0>        -0.2322
     23 C18         7.9166   -7.9350    4.9895 C.3       1 <0>         0.0964
     24 C19         8.6904   -7.3511    6.1732 C.3       1 <0>        -0.1679
     25 C20         9.3902   -8.4804    6.9321 C.3       1 <0>        -0.0052
     26 N5         10.1331   -7.9197    8.0686 N.4       1 <0>        -0.3828
     27 C21        11.2069   -7.0524    7.5693 C.3       1 <0>        -0.0121
     28 C22        11.9326   -6.4021    8.7491 C.3       1 <0>        -0.1464
     29 C23        12.5298   -7.4955    9.6395 C.3       1 <0>        -0.1395
     30 C24        11.4112   -8.4375   10.0941 C.3       1 <0>        -0.1470
     31 C25        10.7049   -9.0124    8.8645 C.3       1 <0>        -0.0065
     32 H1         -0.9604    1.9042    0.0260 H         1 <0>         0.1231
     33 H2          1.1476    3.1726    0.0081 H         1 <0>         0.1247
     34 H3          3.3020    1.9859   -0.0199 H         1 <0>         0.1219
     35 H4          1.2180   -1.7604   -0.0192 H         1 <0>         0.1185
     36 H5         -0.9264   -0.5557    0.0082 H         1 <0>         0.1237
     37 H6          4.7907    0.2982   -1.6871 H         1 <0>         0.2074
     38 H7          3.5069   -3.7990    3.2996 H         1 <0>         0.1846
     39 H8          6.9813   -3.4010    0.8291 H         1 <0>         0.1853
     40 H9          7.8370   -4.7471    1.7457 H         1 <0>         0.1509
     41 H10         8.8971   -6.5423    2.9823 H         1 <0>         0.1680
     42 H11         4.3457   -5.1627    4.2181 H         1 <0>         0.1583
     43 H12         7.1725   -8.6425    5.3553 H         1 <0>         0.1127
     44 H13         8.6080   -8.4481    4.3210 H         1 <0>         0.1028
     45 H14         9.4346   -6.6436    5.8074 H         1 <0>         0.0926
     46 H15         7.9990   -6.8380    6.8417 H         1 <0>         0.0977
     47 H16         8.6460   -9.1878    7.2980 H         1 <0>         0.1368
     48 H17        10.0815   -8.9934    6.2637 H         1 <0>         0.1334
     49 H18        11.9143   -7.6470    6.9913 H         1 <0>         0.1294
     50 H19        10.7806   -6.2767    6.9332 H         1 <0>         0.1290
     51 H20        12.7306   -5.7600    8.3764 H         1 <0>         0.1121
     52 H21        11.2261   -5.8070    9.3278 H         1 <0>         0.0876
     53 H22        13.2739   -8.0585    9.0760 H         1 <0>         0.0819
     54 H23        12.9993   -7.0397   10.5113 H         1 <0>         0.0946
     55 H24        11.8366   -9.2503   10.6827 H         1 <0>         0.1131
     56 H25        10.6939   -7.8847   10.7007 H         1 <0>         0.0880
     57 H26         9.9080   -9.6837    9.1846 H         1 <0>         0.1313
     58 H27        11.4230   -9.5652    8.2588 H         1 <0>         0.1291
     59 H28         9.5063   -7.3778    8.6445 H         1 <0>         0.4240
@<TRIPOS>BOND
     1    1    6 ar
     2    1    2 ar
     3    1   32 1
     4    2    3 ar
     5    2   33 1
     6    3    4 ar
     7    3   34 1
     8    4    5 ar
     9    4    7 1
    10    5    6 ar
    11    5   35 1
    12    6   36 1
    13    7   11 2
    14    7    8 1
    15    8    9 2
    16    8   37 1
    17    9   10 1
    18   10   15 1
    19   10   11 1
    20   11   12 1
    21   12   13 2
    22   13   14 1
    23   13   38 1
    24   14   15 2
    25   14   16 1
    26   15   39 1
    27   16   22 2
    28   16   17 1
    29   17   18 2
    30   17   40 1
    31   18   19 1
    32   18   41 1
    33   19   20 am
    34   19   23 1
    35   20   21 2
    36   20   22 1
    37   22   42 1
    38   23   24 1
    39   23   43 1
    40   23   44 1
    41   24   25 1
    42   24   45 1
    43   24   46 1
    44   25   26 1
    45   25   47 1
    46   25   48 1
    47   26   31 1
    48   26   27 1
    49   26   59 1
    50   27   28 1
    51   27   49 1
    52   27   50 1
    53   28   29 1
    54   28   51 1
    55   28   52 1
    56   29   30 1
    57   29   53 1
    58   29   54 1
    59   30   31 1
    60   30   55 1
    61   30   56 1
    62   31   57 1
    63   31   58 1
@<TRIPOS>MOLECULE
CHEMBL324153
   53    57     0     0     0
SMALL
USER_CHARGES

@<TRIPOS>ATOM
      1 C1         -0.0202    1.4473   -0.3008 C.ar      1 <0>        -0.0542
      2 C2          1.1728    2.1392   -0.2827 C.ar      1 <0>        -0.1484
      3 C3          2.3740    1.4516   -0.1760 C.ar      1 <0>         0.1473
      4 C4          2.3784    0.0663   -0.0867 C.ar      1 <0>        -0.2102
      5 C5          1.1885   -0.6310   -0.1038 C.ar      1 <0>        -0.0558
      6 C6         -0.0189    0.0566   -0.2113 C.ar      1 <0>        -0.0902
      7 C7         -1.3010   -0.6908   -0.2299 C.2       1 <0>        -0.1374
      8 C8         -2.2358   -0.5325    0.8155 C.2       1 <0>         0.2012
      9 N1         -3.3668   -1.1966    0.7918 N.2       1 <0>        -0.4559
     10 C9         -3.6558   -2.0296   -0.2130 C.2       1 <0>         0.2776
     11 C10        -4.7676   -2.8420   -0.4763 C.2       1 <0>        -0.2082
     12 C11        -4.5199   -3.5029   -1.6854 C.2       1 <0>         0.1166
     13 N2         -3.3475   -3.1315   -2.1382 N.2       1 <0>        -0.3060
     14 N3         -2.7781   -2.2140   -1.2482 N.pl3     1 <0>        -0.3069
     15 C12        -1.5940   -1.5372   -1.2629 C.2       1 <0>         0.1765
     16 C13        -5.9762   -2.9763    0.3662 C.ar      1 <0>         0.0531
     17 C14        -5.8715   -3.2236    1.7403 C.ar      1 <0>        -0.1530
     18 C15        -7.0234   -3.3417    2.4877 C.ar      1 <0>         0.1011
     19 N4         -8.2118   -3.2253    1.9246 N.ar      1 <0>        -0.4908
     20 C16        -8.3551   -2.9924    0.6331 C.ar      1 <0>         0.1007
     21 C17        -7.2564   -2.8540   -0.1874 C.ar      1 <0>        -0.1671
     22 O1          3.5479    2.1359   -0.1594 O.3       1 <0>        -0.2948
     23 C18         4.7463    1.3656   -0.0474 C.3       1 <0>         0.0649
     24 C19         5.9562    2.3021   -0.0452 C.3       1 <0>         0.0536
     25 N5          5.9224    3.1430    1.1588 N.3       1 <0>        -0.5310
     26 C20         6.7643    4.3365    0.9918 C.3       1 <0>         0.0184
     27 C21         6.6533    5.2120    2.2428 C.3       1 <0>         0.0628
     28 O2          7.0246    4.4438    3.3906 O.3       1 <0>        -0.3849
     29 C22         6.2246    3.2742    3.5840 C.3       1 <0>         0.0636
     30 C23         6.3314    2.3791    2.3465 C.3       1 <0>         0.0137
     31 H1         -0.9546    1.9830   -0.3797 H         1 <0>         0.1333
     32 H2          1.1725    3.2169   -0.3521 H         1 <0>         0.1366
     33 H3          3.3144   -0.4660   -0.0041 H         1 <0>         0.1306
     34 H4          1.1925   -1.7087   -0.0346 H         1 <0>         0.1266
     35 H5         -2.0196    0.1358    1.6359 H         1 <0>         0.1844
     36 H6         -5.1857   -4.2044   -2.1661 H         1 <0>         0.2036
     37 H7         -0.8962   -1.6712   -2.0762 H         1 <0>         0.1825
     38 H8         -4.9026   -3.3206    2.2075 H         1 <0>         0.1310
     39 H9         -6.9530   -3.5324    3.5484 H         1 <0>         0.1554
     40 H10        -9.3469   -2.9048    0.2145 H         1 <0>         0.1561
     41 H11        -7.3810   -2.6585   -1.2422 H         1 <0>         0.1340
     42 H12         4.7264    0.7956    0.8814 H         1 <0>         0.0645
     43 H13         4.8184    0.6809   -0.8925 H         1 <0>         0.0690
     44 H14         6.8726    1.7119   -0.0506 H         1 <0>         0.0626
     45 H15         5.9269    2.9357   -0.9317 H         1 <0>         0.0892
     46 H16         7.8018    4.0333    0.8507 H         1 <0>         0.0440
     47 H17         6.4278    4.9005    0.1218 H         1 <0>         0.0889
     48 H18         7.3196    6.0693    2.1475 H         1 <0>         0.0997
     49 H19         5.6260    5.5592    2.3540 H         1 <0>         0.0617
     50 H20         6.5810    2.7300    4.4586 H         1 <0>         0.0990
     51 H21         5.1849    3.5651    3.7342 H         1 <0>         0.0612
     52 H22         5.6787    1.5142    2.4655 H         1 <0>         0.0848
     53 H23         7.3619    2.0446    2.2271 H         1 <0>         0.0449
@<TRIPOS>BOND
     1    1    6 ar
     2    1    2 ar
     3    1   31 1
     4    2    3 ar
     5    2   32 1
     6    3    4 ar
     7    3   22 1
     8    4    5 ar
     9    4   33 1
    10    5    6 ar
    11    5   34 1
    12    6    7 1
    13    7   15 2
    14    7    8 1
    15    8    9 2
    16    8   35 1
    17    9   10 1
    18   10   14 1
    19   10   11 2
    20   11   12 1
    21   11   16 1
    22   12   13 2
    23   12   36 1
    24   13   14 1
    25   14   15 1
    26   15   37 1
    27   16   21 ar
    28   16   17 ar
    29   17   18 ar
    30   17   38 1
    31   18   19 ar
    32   18   39 1
    33   19   20 ar
    34   20   21 ar
    35   20   40 1
    36   21   41 1
    37   22   23 1
    38   23   24 1
    39   23   42 1
    40   23   43 1
    41   24   25 1
    42   24   44 1
    43   24   45 1
    44   25   30 1
    45   25   26 1
    46   26   27 1
    47   26   46 1
    48   26   47 1
    49   27   28 1
    50   27   48 1
    51   27   49 1
    52   28   29 1
    53   29   30 1
    54   29   50 1
    55   29   51 1
    56   30   52 1
    57   30   53 1
@<TRIPOS>MOLECULE
CHEMBL324153__1
   54    58     0     0     0
SMALL
USER_CHARGES

@<TRIPOS>ATOM
      1 C1          0.0455    1.0497    0.0452 C.ar      1 <0>        -0.0547
      2 C2          1.1887    1.8201    0.0029 C.ar      1 <0>        -0.1365
      3 C3          2.4372    1.2138    0.0257 C.ar      1 <0>         0.1218
      4 C4          2.5392   -0.1691    0.0916 C.ar      1 <0>        -0.1992
      5 C5          1.3995   -0.9447    0.1346 C.ar      1 <0>        -0.0580
      6 C6          0.1447   -0.3388    0.1114 C.ar      1 <0>        -0.0578
      7 C7         -1.0835   -1.1706    0.1575 C.2       1 <0>        -0.1594
      8 C8         -1.9611   -1.0888    1.2598 C.2       1 <0>         0.1980
      9 N1         -3.0447   -1.8273    1.2932 N.2       1 <0>        -0.4490
     10 C9         -3.3386   -2.6652    0.2940 C.2       1 <0>         0.2730
     11 C10        -4.4079   -3.5473    0.0846 C.2       1 <0>        -0.1951
     12 C11        -4.1912   -4.1748   -1.1481 C.2       1 <0>         0.1201
     13 N2         -3.0761   -3.7196   -1.6643 N.2       1 <0>        -0.3009
     14 N3         -2.5156   -2.7770   -0.7951 N.pl3     1 <0>        -0.3103
     15 C12        -1.3822   -2.0218   -0.8698 C.2       1 <0>         0.1873
     16 C13        -5.5511   -3.7733    0.9960 C.ar      1 <0>         0.0461
     17 C14        -5.3463   -4.0302    2.3570 C.ar      1 <0>        -0.1526
     18 C15        -6.4400   -4.2350    3.1703 C.ar      1 <0>         0.1024
     19 N4         -7.6656   -4.1920    2.6818 N.ar      1 <0>        -0.4874
     20 C16        -7.9029   -3.9530    1.4053 C.ar      1 <0>         0.1031
     21 C17        -6.8680   -3.7306    0.5226 C.ar      1 <0>        -0.1652
     22 O1          3.5619    1.9754   -0.0170 O.3       1 <0>        -0.3278
     23 C18         4.8135    1.2863    0.0098 C.3       1 <0>         0.0246
     24 C19         5.9562    2.3021   -0.0452 C.3       1 <0>        -0.0002
     25 N5          5.9224    3.1430    1.1588 N.4       1 <0>        -0.3870
     26 C20         6.9269    4.2089    1.0405 C.3       1 <0>        -0.0436
     27 C21         6.8895    5.0836    2.2960 C.3       1 <0>         0.0353
     28 O2          7.1232    4.2670    3.4468 O.3       1 <0>        -0.3556
     29 C22         6.1836    3.1985    3.5926 C.3       1 <0>         0.0370
     30 C23         6.2196    2.3203    2.3395 C.3       1 <0>        -0.0500
     31 H1         -0.9256    1.5221    0.0316 H         1 <0>         0.1410
     32 H2          1.1124    2.8962   -0.0483 H         1 <0>         0.1389
     33 H3          3.5119   -0.6381    0.1089 H         1 <0>         0.1322
     34 H4          1.4794   -2.0205    0.1855 H         1 <0>         0.1342
     35 H5         -1.7401   -0.4178    2.0767 H         1 <0>         0.1827
     36 H6         -4.8371   -4.9135   -1.5994 H         1 <0>         0.2071
     37 H7         -0.7281   -2.0983   -1.7258 H         1 <0>         0.1821
     38 H8         -4.3464   -4.0675    2.7633 H         1 <0>         0.1304
     39 H9         -6.2922   -4.4338    4.2215 H         1 <0>         0.1564
     40 H10        -8.9220   -3.9273    1.0487 H         1 <0>         0.1581
     41 H11        -7.0697   -3.5308   -0.5194 H         1 <0>         0.1350
     42 H12         4.8884    0.7046    0.9286 H         1 <0>         0.0879
     43 H13         4.8791    0.6186   -0.8493 H         1 <0>         0.1124
     44 H14         6.9090    1.7749   -0.0936 H         1 <0>         0.1514
     45 H15         5.8427    2.9292   -0.9296 H         1 <0>         0.1452
     46 H16         7.9170    3.7654    0.9356 H         1 <0>         0.1404
     47 H17         6.7072    4.8199    0.1649 H         1 <0>         0.1443
     48 H18         7.6628    5.8489    2.2297 H         1 <0>         0.1435
     49 H19         5.9122    5.5591    2.3795 H         1 <0>         0.0821
     50 H20         6.4460    2.5995    4.4646 H         1 <0>         0.1428
     51 H21         5.1821    3.6094    3.7205 H         1 <0>         0.0820
     52 H22         5.4750    1.5292    2.4283 H         1 <0>         0.1398
     53 H23         7.2101    1.8775    2.2341 H         1 <0>         0.1415
     54 H24         5.0059    3.5535    1.2569 H         1 <0>         0.4302
@<TRIPOS>BOND
     1    1    6 ar
     2    1    2 ar
     3    1   31 1
     4    2    3 ar
     5    2   32 1
     6    3    4 ar
     7    3   22 1
     8    4    5 ar
     9    4   33 1
    10    5    6 ar
    11    5   34 1
    12    6    7 1
    13    7   15 2
    14    7    8 1
    15    8    9 2
    16    8   35 1
    17    9   10 1
    18   10   14 1
    19   10   11 2
    20   11   12 1
    21   11   16 1
    22   12   13 2
    23   12   36 1
    24   13   14 1
    25   14   15 1
    26   15   37 1
    27   16   21 ar
    28   16   17 ar
    29   17   18 ar
    30   17   38 1
    31   18   19 ar
    32   18   39 1
    33   19   20 ar
    34   20   21 ar
    35   20   40 1
    36   21   41 1
    37   22   23 1
    38   23   24 1
    39   23   42 1
    40   23   43 1
    41   24   25 1
    42   24   44 1
    43   24   45 1
    44   25   30 1
    45   25   26 1
    46   25   54 1
    47   26   27 1
    48   26   46 1
    49   26   47 1
    50   27   28 1
    51   27   48 1
    52   27   49 1
    53   28   29 1
    54   29   30 1
    55   29   50 1
    56   29   51 1
    57   30   52 1
    58   30   53 1
@<TRIPOS>MOLECULE
CHEMBL573577
   59    62     0     0     0
SMALL
USER_CHARGES

@<TRIPOS>ATOM
      1 C1         -0.4150    1.4143    0.0421 C.3       1 <0>        -0.0953
      2 C2         -0.1211   -0.0633    0.0078 C.2       1 <0>        -0.0505
      3 C3          0.0576   -0.8412   -1.1191 C.2       1 <0>        -0.0216
      4 N1          0.3054   -2.1349   -0.7093 N.pl3     1 <0>        -0.4947
      5 H1          0.4677   -2.8890   -1.2975 H         1 <0>         0.4238
      6 C4          0.2863   -2.1856    0.6331 C.2       1 <0>         0.1143
      7 C5          0.0303   -0.9171    1.1214 C.2       1 <0>        -0.2295
      8 C6         -0.0687   -0.5296    2.5403 C.2       1 <0>         0.5975
      9 O1         -1.1426   -0.5743    3.1093 O.2       1 <0>        -0.5341
     10 N2          1.0308   -0.1259    3.2070 N.am      1 <0>        -0.7173
     11 C7          0.9324    0.2591    4.6170 C.3       1 <0>         0.0869
     12 C8          2.3130    0.6733    5.1302 C.3       1 <0>         0.1023
     13 C9          2.2353    0.9555    6.6319 C.3       1 <0>         0.0237
     14 N3          3.5608    1.3532    7.1247 N.3       1 <0>        -0.5251
     15 C10         4.5132    0.2369    7.0341 C.3       1 <0>         0.0145
     16 C11         5.8923    0.7107    7.5004 C.3       1 <0>         0.0636
     17 O2          5.7889    1.2277    8.8298 O.3       1 <0>        -0.3856
     18 C12         4.8702    2.3167    8.9542 C.3       1 <0>         0.0634
     19 C13         3.4807    1.8591    8.5027 C.3       1 <0>         0.0168
     20 O3          2.7417    1.8520    4.4455 O.3       1 <0>        -0.5429
     21 C14         0.5128   -3.4191    1.4687 C.3       1 <0>        -0.0996
     22 C15        -0.0030   -0.3914   -2.4562 C.2       1 <0>         0.0881
     23 C16        -0.5015   -1.2202   -3.4414 C.2       1 <0>        -0.2047
     24 C17        -0.4951   -0.9862   -4.9027 C.ar      1 <0>        -0.0667
     25 C18        -0.0270    0.0538   -5.6996 C.ar      1 <0>        -0.1023
     26 C19        -0.1699   -0.0177   -7.0724 C.ar      1 <0>         0.0827
     27 C20        -0.7775   -1.1223   -7.6507 C.ar      1 <0>        -0.1181
     28 C21        -1.2444   -2.1579   -6.8672 C.ar      1 <0>        -0.1046
     29 C22        -1.1094   -2.1033   -5.4843 C.ar      1 <0>         0.1293
     30 N4         -1.4846   -2.9913   -4.4820 N.am      1 <0>        -0.6490
     31 C23        -1.1474   -2.5281   -3.2664 C.2       1 <0>         0.5576
     32 O4         -1.3452   -3.0925   -2.2052 O.2       1 <0>        -0.5096
     33 F1          0.2823    0.9891   -7.8515 F         1 <0>        -0.1345
     34 H2          0.5220    1.9706    0.0666 H         1 <0>         0.0766
     35 H3         -0.9799    1.6932   -0.8475 H         1 <0>         0.0700
     36 H4         -0.9997    1.6480    0.9318 H         1 <0>         0.0708
     37 H5          1.8874   -0.0902    2.7531 H         1 <0>         0.4063
     38 H6          0.2412    1.0960    4.7178 H         1 <0>         0.0735
     39 H7          0.5667   -0.5863    5.1998 H         1 <0>         0.0763
     40 H8          3.0248   -0.1319    4.9482 H         1 <0>         0.1043
     41 H9          1.5234    1.7607    6.8139 H         1 <0>         0.0847
     42 H10         1.9082    0.0564    7.1542 H         1 <0>         0.0486
     43 H11         4.1757   -0.5819    7.6695 H         1 <0>         0.0428
     44 H12         4.5759   -0.1052    6.0011 H         1 <0>         0.0882
     45 H13         6.5883   -0.1281    7.4892 H         1 <0>         0.0984
     46 H14         6.2533    1.4930    6.8327 H         1 <0>         0.0620
     47 H15         4.8269    2.6394    9.9944 H         1 <0>         0.0990
     48 H16         5.2015    3.1456    8.3287 H         1 <0>         0.0615
     49 H17         2.7897    2.7012    8.5416 H         1 <0>         0.0873
     50 H18         3.1267    1.0662    9.1615 H         1 <0>         0.0435
     51 H19         2.1541    2.6109    4.5632 H         1 <0>         0.3766
     52 H20         1.5751   -3.5164    1.6924 H         1 <0>         0.0822
     53 H21        -0.0483   -3.3355    2.3994 H         1 <0>         0.0869
     54 H22         0.1754   -4.2976    0.9186 H         1 <0>         0.0766
     55 H23         0.3406    0.6010   -2.7081 H         1 <0>         0.1572
     56 H24         0.4456    0.9132   -5.2475 H         1 <0>         0.1429
     57 H25        -0.8866   -1.1722   -8.7240 H         1 <0>         0.1457
     58 H26        -1.7162   -3.0126   -7.3291 H         1 <0>         0.1394
     59 H27        -1.9293   -3.8386   -4.6405 H         1 <0>         0.4199
@<TRIPOS>BOND
     1    1    2 1
     2    1   34 1
     3    1   35 1
     4    1   36 1
     5    2    7 1
     6    2    3 2
     7    3    4 1
     8    3   22 1
     9    4    5 1
    10    4    6 1
    11    6    7 2
    12    6   21 1
    13    7    8 1
    14    8    9 2
    15    8   10 am
    16   10   11 1
    17   10   37 1
    18   11   12 1
    19   11   38 1
    20   11   39 1
    21   12   13 1
    22   12   20 1
    23   12   40 1
    24   13   14 1
    25   13   41 1
    26   13   42 1
    27   14   19 1
    28   14   15 1
    29   15   16 1
    30   15   43 1
    31   15   44 1
    32   16   17 1
    33   16   45 1
    34   16   46 1
    35   17   18 1
    36   18   19 1
    37   18   47 1
    38   18   48 1
    39   19   49 1
    40   19   50 1
    41   20   51 1
    42   21   52 1
    43   21   53 1
    44   21   54 1
    45   22   23 2
    46   22   55 1
    47   23   31 1
    48   23   24 1
    49   24   29 ar
    50   24   25 ar
    51   25   26 ar
    52   25   56 1
    53   26   27 ar
    54   26   33 1
    55   27   28 ar
    56   27   57 1
    57   28   29 ar
    58   28   58 1
    59   29   30 1
    60   30   31 am
    61   30   59 1
    62   31   32 2
@<TRIPOS>MOLECULE
CHEMBL573577__1
   60    63     0     0     0
SMALL
USER_CHARGES

@<TRIPOS>ATOM
      1 C1         -0.4150    1.4143    0.0421 C.3       1 <0>        -0.0940
      2 C2         -0.1211   -0.0633    0.0078 C.2       1 <0>        -0.0571
      3 C3          0.0576   -0.8412   -1.1191 C.2       1 <0>        -0.0098
      4 N1          0.3054   -2.1349   -0.7093 N.pl3     1 <0>        -0.4925
      5 H1          0.4677   -2.8890   -1.2975 H         1 <0>         0.4259
      6 C4          0.2863   -2.1856    0.6331 C.2       1 <0>         0.1126
      7 C5          0.0303   -0.9171    1.1214 C.2       1 <0>        -0.2380
      8 C6         -0.0687   -0.5296    2.5403 C.2       1 <0>         0.6058
      9 O1         -1.1426   -0.5743    3.1093 O.2       1 <0>        -0.5238
     10 N2          1.0308   -0.1259    3.2070 N.am      1 <0>        -0.7252
     11 C7          0.9324    0.2591    4.6170 C.3       1 <0>         0.0914
     12 C8          2.3130    0.6733    5.1302 C.3       1 <0>         0.0721
     13 C9          2.2353    0.9555    6.6319 C.3       1 <0>        -0.0432
     14 N3          3.5608    1.3532    7.1247 N.4       1 <0>        -0.3805
     15 C10         4.4924    0.2248    6.9899 C.3       1 <0>        -0.0490
     16 C11         5.8727    0.6417    7.5037 C.3       1 <0>         0.0371
     17 O2          5.7600    1.0704    8.8636 O.3       1 <0>        -0.3561
     18 C12         4.8445    2.1534    9.0499 C.3       1 <0>         0.0358
     19 C13         3.4623    1.7394    8.5389 C.3       1 <0>        -0.0441
     20 O3          2.7417    1.8520    4.4455 O.3       1 <0>        -0.5500
     21 C14         0.5128   -3.4191    1.4687 C.3       1 <0>        -0.0996
     22 C15        -0.0030   -0.3914   -2.4562 C.2       1 <0>         0.0728
     23 C16        -0.5015   -1.2202   -3.4414 C.2       1 <0>        -0.1889
     24 C17        -0.4951   -0.9862   -4.9027 C.ar      1 <0>        -0.0737
     25 C18        -0.0270    0.0538   -5.6996 C.ar      1 <0>        -0.1000
     26 C19        -0.1699   -0.0177   -7.0724 C.ar      1 <0>         0.0843
     27 C20        -0.7775   -1.1223   -7.6507 C.ar      1 <0>        -0.1139
     28 C21        -1.2444   -2.1579   -6.8672 C.ar      1 <0>        -0.1028
     29 C22        -1.1094   -2.1033   -5.4843 C.ar      1 <0>         0.1304
     30 N4         -1.4846   -2.9913   -4.4820 N.am      1 <0>        -0.6474
     31 C23        -1.1474   -2.5281   -3.2664 C.2       1 <0>         0.5577
     32 O4         -1.3452   -3.0925   -2.2052 O.2       1 <0>        -0.5109
     33 F1          0.2823    0.9891   -7.8515 F         1 <0>        -0.1327
     34 H2          0.5220    1.9706    0.0666 H         1 <0>         0.0741
     35 H3         -0.9799    1.6932   -0.8475 H         1 <0>         0.0725
     36 H4         -0.9997    1.6480    0.9318 H         1 <0>         0.0683
     37 H5          1.8874   -0.0902    2.7531 H         1 <0>         0.4084
     38 H6          0.2412    1.0960    4.7178 H         1 <0>         0.0831
     39 H7          0.5667   -0.5863    5.1998 H         1 <0>         0.0875
     40 H8          3.0248   -0.1319    4.9482 H         1 <0>         0.1307
     41 H9          1.5234    1.7607    6.8139 H         1 <0>         0.1416
     42 H10         1.9082    0.0564    7.1542 H         1 <0>         0.1459
     43 H11         4.1270   -0.6200    7.5737 H         1 <0>         0.1402
     44 H12         4.5663   -0.0624    5.9410 H         1 <0>         0.1426
     45 H13         6.5545   -0.2067    7.4448 H         1 <0>         0.1427
     46 H14         6.2558    1.4604    6.8946 H         1 <0>         0.0826
     47 H15         4.7821    2.3991   10.1100 H         1 <0>         0.1432
     48 H16         5.1924    3.0239    8.4936 H         1 <0>         0.0819
     49 H17         2.7715    2.5765    8.6400 H         1 <0>         0.1434
     50 H18         3.0973    0.8939    9.1222 H         1 <0>         0.1401
     51 H19         2.1541    2.6109    4.5632 H         1 <0>         0.3940
     52 H20         1.5751   -3.5164    1.6924 H         1 <0>         0.0806
     53 H21        -0.0483   -3.3355    2.3994 H         1 <0>         0.0850
     54 H22         0.1754   -4.2976    0.9186 H         1 <0>         0.0793
     55 H23         0.3406    0.6010   -2.7081 H         1 <0>         0.1581
     56 H24         0.4456    0.9132   -5.2475 H         1 <0>         0.1429
     57 H25        -0.8866   -1.1722   -8.7240 H         1 <0>         0.1481
     58 H26        -1.7162   -3.0126   -7.3291 H         1 <0>         0.1415
     59 H27        -1.9293   -3.8386   -4.6405 H         1 <0>         0.4219
     60 H28         3.8996    2.1356    6.5850 H         1 <0>         0.4276
@<TRIPOS>BOND
     1    1    2 1
     2    1   34 1
     3    1   35 1
     4    1   36 1
     5    2    7 1
     6    2    3 2
     7    3    4 1
     8    3   22 1
     9    4    5 1
    10    4    6 1
    11    6    7 2
    12    6   21 1
    13    7    8 1
    14    8    9 2
    15    8   10 am
    16   10   11 1
    17   10   37 1
    18   11   12 1
    19   11   38 1
    20   11   39 1
    21   12   13 1
    22   12   20 1
    23   12   40 1
    24   13   14 1
    25   13   41 1
    26   13   42 1
    27   14   19 1
    28   14   15 1
    29   14   60 1
    30   15   16 1
    31   15   43 1
    32   15   44 1
    33   16   17 1
    34   16   45 1
    35   16   46 1
    36   17   18 1
    37   18   19 1
    38   18   47 1
    39   18   48 1
    40   19   49 1
    41   19   50 1
    42   20   51 1
    43   21   52 1
    44   21   53 1
    45   21   54 1
    46   22   23 2
    47   22   55 1
    48   23   31 1
    49   23   24 1
    50   24   29 ar
    51   24   25 ar
    52   25   26 ar
    53   25   56 1
    54   26   27 ar
    55   26   33 1
    56   27   28 ar
    57   27   57 1
    58   28   29 ar
    59   28   58 1
    60   29   30 1
    61   30   31 am
    62   30   59 1
    63   31   32 2
@<TRIPOS>MOLECULE
CHEMBL573577__2
   59    62     0     0     0
SMALL
USER_CHARGES

@<TRIPOS>ATOM
      1 C1         -0.3941    0.9532    0.0400 C.3       1 <0>        -0.0945
      2 C2          0.3369   -0.3548   -0.1209 C.2       1 <0>        -0.0553
      3 C3          0.6757   -0.9675   -1.3112 C.2       1 <0>        -0.0184
      4 N1          1.3340   -2.1427   -1.0136 N.pl3     1 <0>        -0.4967
      5 H1          1.6833   -2.7712   -1.6647 H         1 <0>         0.4221
      6 C4          1.4147   -2.2794    0.3205 C.2       1 <0>         0.1139
      7 C5          0.8122   -1.1860    0.9159 C.2       1 <0>        -0.2278
      8 C6          0.6872   -0.9368    2.3635 C.2       1 <0>         0.5974
      9 O1         -0.2834   -1.3482    2.9697 O.2       1 <0>        -0.5345
     10 N2          1.6486   -0.2531    3.0151 N.am      1 <0>        -0.7169
     11 C7          1.5244   -0.0054    4.4536 C.3       1 <0>         0.0862
     12 C8          2.7400    0.7850    4.9419 C.3       1 <0>         0.1049
     13 C9          2.6103    1.0436    6.4443 C.3       1 <0>         0.0236
     14 N3          3.7423    1.8614    6.9000 N.3       1 <0>        -0.5260
     15 C10         3.9171    1.7547    8.3558 C.3       1 <0>         0.0175
     16 C11         5.1403    2.5725    8.7788 C.3       1 <0>         0.0632
     17 O2          4.9730    3.9270    8.3514 O.3       1 <0>        -0.3854
     18 C12         4.8008    4.0678    6.9386 C.3       1 <0>         0.0633
     19 C13         3.5741    3.2652    6.4970 C.3       1 <0>         0.0152
     20 O3          3.9293    0.0344    4.6888 O.3       1 <0>        -0.5433
     21 C14         2.0608   -3.4304    1.0478 C.3       1 <0>        -0.0988
     22 C15         0.3969   -0.4773   -2.6057 C.2       1 <0>         0.0835
     23 C16         0.0228   -1.3496   -3.6084 C.2       1 <0>        -0.1964
     24 C17        -0.1559   -1.0453   -5.0456 C.ar      1 <0>        -0.0696
     25 C18        -0.0193    0.1168   -5.7983 C.ar      1 <0>        -0.1009
     26 C19        -0.2625    0.0844   -7.1583 C.ar      1 <0>         0.0818
     27 C20        -0.6409   -1.1025   -7.7680 C.ar      1 <0>        -0.1168
     28 C21        -0.7786   -2.2595   -7.0284 C.ar      1 <0>        -0.1056
     29 C22        -0.5381   -2.2458   -5.6590 C.ar      1 <0>         0.1317
     30 N4         -0.6025   -3.2490   -4.6980 N.am      1 <0>        -0.6503
     31 C23        -0.2777   -2.7820   -3.4805 C.2       1 <0>         0.5563
     32 O4         -0.2416   -3.4319   -2.4507 O.2       1 <0>        -0.5044
     33 F1         -0.1320    1.2097   -7.8945 F         1 <0>        -0.1345
     34 H2          0.3262    1.7707    0.0703 H         1 <0>         0.0749
     35 H3         -1.0714    1.0968   -0.8019 H         1 <0>         0.0698
     36 H4         -0.9658    0.9381    0.9679 H         1 <0>         0.0703
     37 H5          2.4229    0.0750    2.5315 H         1 <0>         0.4070
     38 H6          0.6172    0.5671    4.6467 H         1 <0>         0.0764
     39 H7          1.4731   -0.9569    4.9830 H         1 <0>         0.0722
     40 H8          2.7913    1.7365    4.4126 H         1 <0>         0.1045
     41 H9          1.6775    1.5715    6.6429 H         1 <0>         0.0510
     42 H10         2.6106    0.0932    6.9780 H         1 <0>         0.0829
     43 H11         3.0300    2.1405    8.8581 H         1 <0>         0.0434
     44 H12         4.0655    0.7100    8.6289 H         1 <0>         0.0871
     45 H13         5.2404    2.5429    9.8638 H         1 <0>         0.0990
     46 H14         6.0351    2.1535    8.3185 H         1 <0>         0.0615
     47 H15         4.6553    5.1197    6.6928 H         1 <0>         0.0988
     48 H16         5.6857    3.6923    6.4249 H         1 <0>         0.0618
     49 H17         3.4721    3.3231    5.4133 H         1 <0>         0.0867
     50 H18         2.6815    3.6751    6.9696 H         1 <0>         0.0439
     51 H19         3.9527   -0.8260    5.1295 H         1 <0>         0.3749
     52 H20         3.1133   -3.2061    1.2207 H         1 <0>         0.0831
     53 H21         1.5600   -3.5830    2.0039 H         1 <0>         0.0864
     54 H22         1.9762   -4.3346    0.4450 H         1 <0>         0.0756
     55 H23         0.4762    0.5799   -2.8115 H         1 <0>         0.1562
     56 H24         0.2751    1.0402   -5.3217 H         1 <0>         0.1428
     57 H25        -0.8299   -1.1215   -8.8311 H         1 <0>         0.1458
     58 H26        -1.0742   -3.1776   -7.5144 H         1 <0>         0.1396
     59 H27        -0.8467   -4.1692   -4.8836 H         1 <0>         0.4200
@<TRIPOS>BOND
     1    1    2 1
     2    1   34 1
     3    1   35 1
     4    1   36 1
     5    2    7 1
     6    2    3 2
     7    3    4 1
     8    3   22 1
     9    4    5 1
    10    4    6 1
    11    6    7 2
    12    6   21 1
    13    7    8 1
    14    8    9 2
    15    8   10 am
    16   10   11 1
    17   10   37 1
    18   11   12 1
    19   11   38 1
    20   11   39 1
    21   12   13 1
    22   12   20 1
    23   12   40 1
    24   13   14 1
    25   13   41 1
    26   13   42 1
    27   14   19 1
    28   14   15 1
    29   15   16 1
    30   15   43 1
    31   15   44 1
    32   16   17 1
    33   16   45 1
    34   16   46 1
    35   17   18 1
    36   18   19 1
    37   18   47 1
    38   18   48 1
    39   19   49 1
    40   19   50 1
    41   20   51 1
    42   21   52 1
    43   21   53 1
    44   21   54 1
    45   22   23 2
    46   22   55 1
    47   23   31 1
    48   23   24 1
    49   24   29 ar
    50   24   25 ar
    51   25   26 ar
    52   25   56 1
    53   26   27 ar
    54   26   33 1
    55   27   28 ar
    56   27   57 1
    57   28   29 ar
    58   28   58 1
    59   29   30 1
    60   30   31 am
    61   30   59 1
    62   31   32 2
@<TRIPOS>MOLECULE
CHEMBL573577__3
   60    63     0     0     0
SMALL
USER_CHARGES

@<TRIPOS>ATOM
      1 C1         -1.7254    0.5415    1.0994 C.3       1 <0>        -0.0933
      2 C2         -1.0351   -0.7773    0.8641 C.2       1 <0>        -0.0616
      3 C3         -0.9727   -1.4727   -0.3273 C.2       1 <0>        -0.0059
      4 N1         -0.2490   -2.6269   -0.1098 N.pl3     1 <0>        -0.4950
      5 H1         -0.0516   -3.3006   -0.7792 H         1 <0>         0.4242
      6 C4          0.1392   -2.6706    1.1757 C.2       1 <0>         0.1122
      7 C5         -0.3231   -1.5361    1.8177 C.2       1 <0>        -0.2363
      8 C6         -0.1137   -1.1861    3.2343 C.2       1 <0>         0.6057
      9 O1         -0.9131   -1.5505    4.0752 O.2       1 <0>        -0.5240
     10 N2          0.9636   -0.4623    3.5975 N.am      1 <0>        -0.7250
     11 C7          1.1717   -0.1145    5.0053 C.3       1 <0>         0.0910
     12 C8          2.4573    0.7033    5.1440 C.3       1 <0>         0.0719
     13 C9          2.6746    1.0665    6.6143 C.3       1 <0>        -0.0429
     14 N3          3.8430    1.9489    6.7331 N.4       1 <0>        -0.3811
     15 C10         4.1390    2.1814    8.1535 C.3       1 <0>        -0.0439
     16 C11         5.3568    3.1009    8.2747 C.3       1 <0>         0.0358
     17 O2          5.0929    4.3262    7.5856 O.3       1 <0>        -0.3559
     18 C12         4.7755    4.1497    6.2022 C.3       1 <0>         0.0371
     19 C13         3.5566    3.2322    6.0772 C.3       1 <0>        -0.0497
     20 O3          3.5653   -0.0677    4.6750 O.3       1 <0>        -0.5497
     21 C14         0.9498   -3.7706    1.8113 C.3       1 <0>        -0.0990
     22 C15        -1.5488   -1.0729   -1.5528 C.2       1 <0>         0.0676
     23 C16        -2.1383   -2.0106   -2.3769 C.2       1 <0>        -0.1804
     24 C17        -2.6475   -1.8075   -3.7515 C.ar      1 <0>        -0.0768
     25 C18        -2.6979   -0.7030   -4.5960 C.ar      1 <0>        -0.0986
     26 C19        -3.2494   -0.8295   -5.8569 C.ar      1 <0>         0.0832
     27 C20        -3.7498   -2.0533   -6.2763 C.ar      1 <0>        -0.1125
     28 C21        -3.7035   -3.1535   -5.4446 C.ar      1 <0>        -0.1039
     29 C22        -3.1523   -3.0450   -4.1727 C.ar      1 <0>         0.1329
     30 N4         -2.9847   -3.9768   -3.1541 N.am      1 <0>        -0.6489
     31 C23        -2.3902   -3.4276   -2.0813 C.2       1 <0>         0.5562
     32 O4         -2.1116   -4.0031   -1.0444 O.2       1 <0>        -0.5055
     33 F1         -3.3016    0.2395   -6.6813 F         1 <0>        -0.1327
     34 H2         -1.0277    1.3563    0.9062 H         1 <0>         0.0726
     35 H3         -2.5805    0.6287    0.4290 H         1 <0>         0.0723
     36 H4         -2.0673    0.5934    2.1331 H         1 <0>         0.0681
     37 H5          1.6012   -0.1717    2.9268 H         1 <0>         0.4090
     38 H6          0.3266    0.4736    5.3630 H         1 <0>         0.0878
     39 H7          1.2558   -1.0266    5.5963 H         1 <0>         0.0823
     40 H8          2.3732    1.6153    4.5530 H         1 <0>         0.1303
     41 H9          1.7918    1.5792    6.9962 H         1 <0>         0.1459
     42 H10         2.8453    0.1579    7.1916 H         1 <0>         0.1415
     43 H11         3.2796    2.6513    8.6318 H         1 <0>         0.1403
     44 H12         4.3517    1.2301    8.6411 H         1 <0>         0.1432
     45 H13         5.5521    3.3095    9.3265 H         1 <0>         0.1432
     46 H14         6.2258    2.6142    7.8320 H         1 <0>         0.0819
     47 H15         4.5502    5.1174    5.7541 H         1 <0>         0.1430
     48 H16         5.6247    3.6989    5.6885 H         1 <0>         0.0825
     49 H17         3.3370    3.0609    5.0233 H         1 <0>         0.1424
     50 H18         2.6975    3.7017    6.5562 H         1 <0>         0.1409
     51 H19         3.7003   -0.8954    5.1564 H         1 <0>         0.3940
     52 H20         2.0110   -3.5388    1.7204 H         1 <0>         0.0812
     53 H21         0.6852   -3.8543    2.8654 H         1 <0>         0.0845
     54 H22         0.7396   -4.7142    1.3079 H         1 <0>         0.0784
     55 H23        -1.5282   -0.0335   -1.8455 H         1 <0>         0.1572
     56 H24        -2.3081    0.2492   -4.2676 H         1 <0>         0.1429
     57 H25        -4.1798   -2.1458   -7.2626 H         1 <0>         0.1481
     58 H26        -4.0967   -4.1010   -5.7824 H         1 <0>         0.1416
     59 H27        -3.2583   -4.9056   -3.2121 H         1 <0>         0.4218
     60 H28         4.6389    1.5149    6.2902 H         1 <0>         0.4278
@<TRIPOS>BOND
     1    1    2 1
     2    1   34 1
     3    1   35 1
     4    1   36 1
     5    2    7 1
     6    2    3 2
     7    3    4 1
     8    3   22 1
     9    4    5 1
    10    4    6 1
    11    6    7 2
    12    6   21 1
    13    7    8 1
    14    8    9 2
    15    8   10 am
    16   10   11 1
    17   10   37 1
    18   11   12 1
    19   11   38 1
    20   11   39 1
    21   12   13 1
    22   12   20 1
    23   12   40 1
    24   13   14 1
    25   13   41 1
    26   13   42 1
    27   14   19 1
    28   14   15 1
    29   14   60 1
    30   15   16 1
    31   15   43 1
    32   15   44 1
    33   16   17 1
    34   16   45 1
    35   16   46 1
    36   17   18 1
    37   18   19 1
    38   18   47 1
    39   18   48 1
    40   19   49 1
    41   19   50 1
    42   20   51 1
    43   21   52 1
    44   21   53 1
    45   21   54 1
    46   22   23 2
    47   22   55 1
    48   23   31 1
    49   23   24 1
    50   24   29 ar
    51   24   25 ar
    52   25   26 ar
    53   25   56 1
    54   26   27 ar
    55   26   33 1
    56   27   28 ar
    57   27   57 1
    58   28   29 ar
    59   28   58 1
    60   29   30 1
    61   30   31 am
    62   30   59 1
    63   31   32 2
@<TRIPOS>MOLECULE
CHEMBL224035
   52    55     0     0     0
SMALL
USER_CHARGES

@<TRIPOS>ATOM
      1 C1         -0.0356    1.8018    0.0057 C.3       1 <0>        -0.6750
      2 S1         -0.0153   -0.0120   -0.0101 S.o2      1 <0>         2.6101
      3 O1          0.8130   -0.5013    1.0357 O.2       1 <0>        -0.9519
      4 O2         -1.3327   -0.5147   -0.1861 O.2       1 <0>        -0.9524
      5 N1          0.7811   -0.4166   -1.4044 N.pl3     1 <0>        -1.0017
      6 C2          0.0480   -0.6019   -2.6659 C.3       1 <0>         0.1263
      7 C3          0.7238    0.2439   -3.7505 C.3       1 <0>         0.0399
      8 N2          2.1531   -0.0902   -3.8078 N.3       1 <0>        -0.5288
      9 C4          2.8298    0.2456   -2.5480 C.3       1 <0>         0.0329
     10 C5          2.2411   -0.5942   -1.4155 C.3       1 <0>         0.1267
     11 C6          2.8030    0.5713   -4.9471 C.3       1 <0>         0.0935
     12 C7          4.1947    0.0199   -5.1211 C.ar      1 <0>        -0.0048
     13 C8          5.2746    0.5986   -4.4671 C.ar      1 <0>        -0.2055
     14 C9          6.5369    0.0696   -4.6476 C.ar      1 <0>         0.1404
     15 N3          6.7273   -0.9748   -5.4313 N.ar      1 <0>        -0.4744
     16 C10         5.7238   -1.5543   -6.0718 C.ar      1 <0>         0.3732
     17 C11         4.4244   -1.0775   -5.9311 C.ar      1 <0>        -0.1872
     18 N4          5.9702   -2.6534   -6.8887 N.pl3     1 <0>        -0.6014
     19 C12         7.2723   -3.0674   -7.1190 C.2       1 <0>         0.2876
     20 N5          8.3833   -2.6063   -6.5816 N.2       1 <0>        -0.5150
     21 C13         9.5574   -3.1077   -6.9036 C.2       1 <0>         0.0871
     22 C14         9.5621   -4.1259   -7.8196 C.2       1 <0>        -0.1934
     23 S2          7.8140   -4.2851   -8.1467 S.3       1 <0>         0.1131
     24 C15        10.6993   -4.8857   -8.3792 C.ar      1 <0>         0.0129
     25 C16        12.0030   -4.5988   -7.9707 C.ar      1 <0>        -0.1052
     26 C17        13.0601   -5.3119   -8.4972 C.ar      1 <0>        -0.1110
     27 C18        12.8304   -6.3095   -9.4281 C.ar      1 <0>        -0.1207
     28 C19        11.5407   -6.5986   -9.8376 C.ar      1 <0>        -0.1112
     29 C20        10.4741   -5.8974   -9.3145 C.ar      1 <0>        -0.1155
     30 H1          0.9879    2.1767    0.0027 H         1 <0>         0.1257
     31 H2         -0.5589    2.1670   -0.8780 H         1 <0>         0.1256
     32 H3         -0.5481    2.1517    0.9019 H         1 <0>         0.1292
     33 H4          0.0730   -1.6531   -2.9529 H         1 <0>         0.0842
     34 H5         -0.9852   -0.2783   -2.5400 H         1 <0>         0.0956
     35 H6          0.2622    0.0344   -4.7154 H         1 <0>         0.0916
     36 H7          0.6066    1.3012   -3.5128 H         1 <0>         0.0410
     37 H8          3.8957    0.0373   -2.6409 H         1 <0>         0.0950
     38 H9          2.6834    1.3029   -2.3270 H         1 <0>         0.0404
     39 H10         2.6572   -0.2654   -0.4632 H         1 <0>         0.0950
     40 H11         2.4810   -1.6446   -1.5800 H         1 <0>         0.0828
     41 H12         2.2239    0.3883   -5.8522 H         1 <0>         0.0911
     42 H13         2.8578    1.6440   -4.7615 H         1 <0>         0.0518
     43 H14         5.1284    1.4540   -3.8243 H         1 <0>         0.1322
     44 H15         7.3795    0.5165   -4.1410 H         1 <0>         0.1588
     45 H16         3.6068   -1.5550   -6.4506 H         1 <0>         0.1360
     46 H17         5.2304   -3.1298   -7.2971 H         1 <0>         0.4356
     47 H18        10.4719   -2.7341   -6.4671 H         1 <0>         0.1743
     48 H19        12.1837   -3.8202   -7.2445 H         1 <0>         0.1265
     49 H20        14.0692   -5.0908   -8.1823 H         1 <0>         0.1274
     50 H21        13.6615   -6.8648   -9.8371 H         1 <0>         0.1245
     51 H22        11.3684   -7.3783  -10.5648 H         1 <0>         0.1262
     52 H23         9.4676   -6.1273   -9.6314 H         1 <0>         0.1211
@<TRIPOS>BOND
     1    1    2 1
     2    1   30 1
     3    1   31 1
     4    1   32 1
     5    2    3 2
     6    2    4 2
     7    2    5 1
     8    5   10 1
     9    5    6 1
    10    6    7 1
    11    6   33 1
    12    6   34 1
    13    7    8 1
    14    7   35 1
    15    7   36 1
    16    8    9 1
    17    8   11 1
    18    9   10 1
    19    9   37 1
    20    9   38 1
    21   10   39 1
    22   10   40 1
    23   11   12 1
    24   11   41 1
    25   11   42 1
    26   12   17 ar
    27   12   13 ar
    28   13   14 ar
    29   13   43 1
    30   14   15 ar
    31   14   44 1
    32   15   16 ar
    33   16   17 ar
    34   16   18 1
    35   17   45 1
    36   18   19 1
    37   18   46 1
    38   19   23 1
    39   19   20 2
    40   20   21 1
    41   21   22 2
    42   21   47 1
    43   22   23 1
    44   22   24 1
    45   24   29 ar
    46   24   25 ar
    47   25   26 ar
    48   25   48 1
    49   26   27 ar
    50   26   49 1
    51   27   28 ar
    52   27   50 1
    53   28   29 ar
    54   28   51 1
    55   29   52 1
@<TRIPOS>MOLECULE
CHEMBL427267
   55    59     0     0     0
SMALL
USER_CHARGES

@<TRIPOS>ATOM
      1 C1          0.0707    0.7622   -2.0934 C.3       1 <0>        -0.1178
      2 C2         -0.6370   -0.5097   -1.7030 C.ar      1 <0>        -0.0636
      3 C3         -1.5867   -1.0583   -2.5455 C.ar      1 <0>        -0.1302
      4 C4         -2.2385   -2.2249   -2.1908 C.ar      1 <0>        -0.0950
      5 C5         -1.9429   -2.8461   -0.9929 C.ar      1 <0>        -0.1249
      6 C6         -0.9897   -2.2981   -0.1451 C.ar      1 <0>         0.1562
      7 C7         -0.3326   -1.1291   -0.5070 C.ar      1 <0>        -0.1444
      8 N1         -0.6882   -2.9247    1.0693 N.am      1 <0>        -0.6762
      9 C8         -0.7376   -4.2681    1.1648 C.2       1 <0>         0.7046
     10 O1         -0.9583   -4.9403    0.1759 O.2       1 <0>        -0.5496
     11 N2         -0.5424   -4.8666    2.3566 N.am      1 <0>        -0.6853
     12 C9         -0.4915   -6.2629    2.4385 C.ar      1 <0>         0.1934
     13 C10         0.0467   -6.9999    1.3906 C.ar      1 <0>        -0.1229
     14 C11         0.0977   -8.3756    1.4685 C.ar      1 <0>        -0.0858
     15 C12        -0.3911   -9.0273    2.6004 C.ar      1 <0>        -0.0986
     16 C13        -0.9302   -8.2851    3.6508 C.ar      1 <0>        -0.0673
     17 C14        -0.9739   -6.9093    3.5699 C.ar      1 <0>        -0.1420
     18 C15        -0.3380  -10.5061    2.6868 C.2       1 <0>        -0.0438
     19 C16        -1.4673  -11.2252    2.8873 C.2       1 <0>        -0.1303
     20 S1         -0.8870  -12.9108    2.9137 S.3       1 <0>         0.2114
     21 C17         0.8405  -12.6148    2.6576 C.ar      1 <0>        -0.0563
     22 C18         0.9327  -11.2132    2.5510 C.ar      1 <0>        -0.1346
     23 C19         2.2347  -10.6920    2.3336 C.ar      1 <0>         0.4999
     24 N3          3.2800  -11.4869    2.2353 N.ar      1 <0>        -0.4957
     25 C20         3.2035  -12.8037    2.3288 C.ar      1 <0>         0.1285
     26 C21         1.9752  -13.4172    2.5528 C.ar      1 <0>        -0.0058
     27 C22         1.8730  -14.8923    2.6597 C.ar      1 <0>        -0.1346
     28 C23         2.4691  -15.7173    1.7008 C.ar      1 <0>        -0.0477
     29 C24         2.3448  -17.0880    1.8459 C.ar      1 <0>        -0.1636
     30 C25         1.6414  -17.5934    2.9244 C.ar      1 <0>         0.1275
     31 N4          1.0893  -16.7902    3.8131 N.ar      1 <0>        -0.4722
     32 C26         1.1860  -15.4797    3.7207 C.ar      1 <0>         0.1314
     33 N5          2.4094   -9.3204    2.2222 N.pl3     1 <0>        -0.8237
     34 H1          0.9706    0.5186   -2.6582 H         1 <0>         0.0735
     35 H2         -0.5908    1.3718   -2.7091 H         1 <0>         0.0712
     36 H3          0.3441    1.3162   -1.1954 H         1 <0>         0.0679
     37 H4         -1.8199   -0.5743   -3.4824 H         1 <0>         0.1264
     38 H5         -2.9799   -2.6507   -2.8507 H         1 <0>         0.1281
     39 H6         -2.4529   -3.7569   -0.7160 H         1 <0>         0.1338
     40 H7          0.4125   -0.7028    0.1483 H         1 <0>         0.1256
     41 H8         -0.4437   -2.3921    1.8423 H         1 <0>         0.4104
     42 H9         -0.4372   -4.3296    3.1575 H         1 <0>         0.4139
     43 H10         0.4250   -6.4947    0.5142 H         1 <0>         0.1468
     44 H11         0.5154   -8.9480    0.6534 H         1 <0>         0.1297
     45 H12        -1.3096   -8.7872    4.5285 H         1 <0>         0.1379
     46 H13        -1.3873   -6.3338    4.3850 H         1 <0>         0.1390
     47 H14        -2.4784  -10.8640    3.0038 H         1 <0>         0.2140
     48 H15         4.0973  -13.4034    2.2394 H         1 <0>         0.2140
     49 H16         3.0124  -15.2955    0.8682 H         1 <0>         0.1427
     50 H17         2.7918  -17.7559    1.1244 H         1 <0>         0.1499
     51 H18         1.5425  -18.6625    3.0405 H         1 <0>         0.1690
     52 H19         0.7248  -14.8547    4.4711 H         1 <0>         0.1577
     53 H20         1.7923   -8.7156    2.6630 H         1 <0>         0.4400
     54 H21         3.1486   -8.9661    1.7036 H         1 <0>         0.4217
     55 H22         4.1506  -11.0860    2.0863 H         1 <0>         0.4455
@<TRIPOS>BOND
     1    1    2 1
     2    1   34 1
     3    1   35 1
     4    1   36 1
     5    2    7 ar
     6    2    3 ar
     7    3    4 ar
     8    3   37 1
     9    4    5 ar
    10    4   38 1
    11    5    6 ar
    12    5   39 1
    13    6    7 ar
    14    6    8 1
    15    7   40 1
    16    8    9 am
    17    8   41 1
    18    9   10 2
    19    9   11 am
    20   11   12 1
    21   11   42 1
    22   12   17 ar
    23   12   13 ar
    24   13   14 ar
    25   13   43 1
    26   14   15 ar
    27   14   44 1
    28   15   16 ar
    29   15   18 1
    30   16   17 ar
    31   16   45 1
    32   17   46 1
    33   18   22 1
    34   18   19 2
    35   19   20 1
    36   19   47 1
    37   20   21 1
    38   21   26 ar
    39   21   22 ar
    40   22   23 ar
    41   23   24 ar
    42   23   33 1
    43   24   25 ar
    44   24   55 1
    45   25   26 ar
    46   25   48 1
    47   26   27 1
    48   27   32 ar
    49   27   28 ar
    50   28   29 ar
    51   28   49 1
    52   29   30 ar
    53   29   50 1
    54   30   31 ar
    55   30   51 1
    56   31   32 ar
    57   32   52 1
    58   33   53 1
    59   33   54 1
@<TRIPOS>MOLECULE
CHEMBL427267__1
   54    58     0     0     0
SMALL
USER_CHARGES

@<TRIPOS>ATOM
      1 C1          0.0692    0.7625   -2.0920 C.3       1 <0>        -0.1156
      2 C2         -0.6384   -0.5094   -1.7013 C.ar      1 <0>        -0.0661
      3 C3         -1.5885   -1.0580   -2.5435 C.ar      1 <0>        -0.1344
      4 C4         -2.2402   -2.2245   -2.1885 C.ar      1 <0>        -0.0952
      5 C5         -1.9441   -2.8458   -0.9908 C.ar      1 <0>        -0.1251
      6 C6         -0.9904   -2.2978   -0.1433 C.ar      1 <0>         0.1634
      7 C7         -0.3335   -1.1289   -0.5055 C.ar      1 <0>        -0.1468
      8 N1         -0.6885   -2.9245    1.0708 N.am      1 <0>        -0.6807
      9 C8         -0.7379   -4.2680    1.1663 C.2       1 <0>         0.7037
     10 O1         -0.9590   -4.9401    0.1775 O.2       1 <0>        -0.5495
     11 N2         -0.5422   -4.8665    2.3580 N.am      1 <0>        -0.6824
     12 C9         -0.4913   -6.2629    2.4398 C.ar      1 <0>         0.1727
     13 C10         0.0464   -6.9998    1.3917 C.ar      1 <0>        -0.1223
     14 C11         0.0973   -8.3755    1.4694 C.ar      1 <0>        -0.0737
     15 C12        -0.3909   -9.0272    2.6016 C.ar      1 <0>        -0.0672
     16 C13        -0.9295   -8.2851    3.6522 C.ar      1 <0>        -0.0785
     17 C14        -0.9733   -6.9092    3.5714 C.ar      1 <0>        -0.1452
     18 C15        -0.3379  -10.5060    2.6878 C.2       1 <0>        -0.0426
     19 C16        -1.4671  -11.2251    2.8887 C.2       1 <0>        -0.1599
     20 S1         -0.8869  -12.9107    2.9148 S.3       1 <0>         0.0761
     21 C17         0.8405  -12.6148    2.6580 C.ar      1 <0>        -0.0404
     22 C18         0.9327  -11.2132    2.5515 C.ar      1 <0>        -0.1809
     23 C19         2.2347  -10.6920    2.3336 C.ar      1 <0>         0.4619
     24 N3          3.2800  -11.4870    2.2348 N.ar      1 <0>        -0.5449
     25 C20         3.2035  -12.8037    2.3287 C.ar      1 <0>         0.1838
     26 C21         1.9752  -13.4172    2.5527 C.ar      1 <0>        -0.1139
     27 C22         1.8730  -14.8923    2.6596 C.ar      1 <0>        -0.0858
     28 C23         2.4687  -15.7172    1.7005 C.ar      1 <0>        -0.0635
     29 C24         2.3444  -17.0879    1.8455 C.ar      1 <0>        -0.1671
     30 C25         1.6414  -17.5934    2.9243 C.ar      1 <0>         0.0982
     31 N4          1.0897  -16.7902    3.8132 N.ar      1 <0>        -0.4785
     32 C26         1.1864  -15.4797    3.7208 C.ar      1 <0>         0.1129
     33 N5          2.4094   -9.3204    2.2222 N.pl3     1 <0>        -0.8485
     34 H1          0.9688    0.5189   -2.6572 H         1 <0>         0.0724
     35 H2         -0.5925    1.3721   -2.7073 H         1 <0>         0.0691
     36 H3          0.3430    1.3164   -1.1941 H         1 <0>         0.0666
     37 H4         -1.8220   -0.5739   -3.4803 H         1 <0>         0.1240
     38 H5         -2.9819   -2.6502   -2.8481 H         1 <0>         0.1268
     39 H6         -2.4540   -3.7566   -0.7137 H         1 <0>         0.1351
     40 H7          0.4119   -0.7026    0.1495 H         1 <0>         0.1248
     41 H8         -0.4436   -2.3920    1.8437 H         1 <0>         0.4088
     42 H9         -0.4366   -4.3296    3.1589 H         1 <0>         0.4099
     43 H10         0.4243   -6.4946    0.5151 H         1 <0>         0.1406
     44 H11         0.5147   -8.9479    0.6542 H         1 <0>         0.1302
     45 H12        -1.3086   -8.7872    4.5300 H         1 <0>         0.1321
     46 H13        -1.3863   -6.3337    4.3867 H         1 <0>         0.1310
     47 H14        -2.4781  -10.8639    3.0057 H         1 <0>         0.1930
     48 H15         4.0973  -13.4034    2.2392 H         1 <0>         0.1684
     49 H16         3.0116  -15.2955    0.8676 H         1 <0>         0.1373
     50 H17         2.7911  -17.7558    1.1238 H         1 <0>         0.1391
     51 H18         1.5426  -18.6626    3.0404 H         1 <0>         0.1579
     52 H19         0.7255  -14.8548    4.4715 H         1 <0>         0.1534
     53 H20         1.7923   -8.7156    2.6630 H         1 <0>         0.4115
     54 H21         3.1486   -8.9661    1.7036 H         1 <0>         0.4041
@<TRIPOS>BOND
     1    1    2 1
     2    1   34 1
     3    1   35 1
     4    1   36 1
     5    2    7 ar
     6    2    3 ar
     7    3    4 ar
     8    3   37 1
     9    4    5 ar
    10    4   38 1
    11    5    6 ar
    12    5   39 1
    13    6    7 ar
    14    6    8 1
    15    7   40 1
    16    8    9 am
    17    8   41 1
    18    9   10 2
    19    9   11 am
    20   11   12 1
    21   11   42 1
    22   12   17 ar
    23   12   13 ar
    24   13   14 ar
    25   13   43 1
    26   14   15 ar
    27   14   44 1
    28   15   16 ar
    29   15   18 1
    30   16   17 ar
    31   16   45 1
    32   17   46 1
    33   18   22 1
    34   18   19 2
    35   19   20 1
    36   19   47 1
    37   20   21 1
    38   21   26 ar
    39   21   22 ar
    40   22   23 ar
    41   23   24 ar
    42   23   33 1
    43   24   25 ar
    44   25   26 ar
    45   25   48 1
    46   26   27 1
    47   27   32 ar
    48   27   28 ar
    49   28   29 ar
    50   28   49 1
    51   29   30 ar
    52   29   50 1
    53   30   31 ar
    54   30   51 1
    55   31   32 ar
    56   32   52 1
    57   33   53 1
    58   33   54 1
@<TRIPOS>MOLECULE
CHEMBL270978
   56    60     0     0     0
SMALL
USER_CHARGES

@<TRIPOS>ATOM
      1 C1          0.0703    1.5029   -0.0489 C.3       1 <0>        -0.0896
      2 C2          0.0662   -0.0041   -0.0494 C.2       1 <0>         0.1258
      3 C3          0.0714   -0.8254   -1.1854 C.2       1 <0>        -0.3176
      4 C4          0.0660   -2.1183   -0.7695 C.2       1 <0>         0.3066
      5 O1          0.0578   -2.1174    0.5743 O.3       1 <0>        -0.0659
      6 N1          0.0630   -0.7692    1.0073 N.2       1 <0>        -0.3125
      7 N2          0.0681   -3.2387   -1.5855 N.am      1 <0>        -0.6279
      8 C5          0.0621   -4.4706   -1.0387 C.2       1 <0>         0.5598
      9 O2          0.0549   -4.5990    0.1705 O.2       1 <0>        -0.4768
     10 C6          0.0644   -5.6621   -1.9065 C.ar      1 <0>        -0.1284
     11 C7         -0.0546   -5.5282   -3.2824 C.ar      1 <0>        -0.0476
     12 C8         -0.0536   -6.6470   -4.1054 C.ar      1 <0>        -0.1172
     13 C9          0.0641   -7.9028   -3.5890 C.ar      1 <0>        -0.0614
     14 C10         0.1871   -8.0862   -2.2005 C.ar      1 <0>        -0.0528
     15 C11         0.1941   -6.9573   -1.3451 C.ar      1 <0>         0.0012
     16 C12         0.3226   -7.1390    0.0390 C.ar      1 <0>        -0.0869
     17 C13         0.4453   -8.3961    0.5472 C.ar      1 <0>        -0.1120
     18 C14         0.4455   -9.5129   -0.2937 C.ar      1 <0>         0.0498
     19 C15         0.3088   -9.3712   -1.6458 C.ar      1 <0>        -0.0976
     20 O3          0.5705  -10.7556    0.2415 O.3       1 <0>        -0.2125
     21 C16         1.7653  -11.3847    0.1178 C.ar      1 <0>         0.2825
     22 C17         2.8572  -10.7396   -0.4366 C.ar      1 <0>        -0.2640
     23 C18         4.0684  -11.4094   -0.5498 C.ar      1 <0>         0.2256
     24 N3          4.2140  -12.6492   -0.1440 N.ar      1 <0>        -0.4813
     25 C19         3.2012  -13.3328    0.4011 C.ar      1 <0>         0.1825
     26 C20         1.9354  -12.7167    0.5563 C.ar      1 <0>        -0.0899
     27 C21         0.8765  -13.4343    1.1335 C.ar      1 <0>        -0.1369
     28 C22         1.0771  -14.7196    1.5458 C.ar      1 <0>         0.1353
     29 C23         2.3311  -15.3306    1.3985 C.ar      1 <0>         0.2171
     30 C24         3.3748  -14.6595    0.8302 C.ar      1 <0>        -0.2363
     31 O4          2.5059  -16.6115    1.8169 O.3       1 <0>        -0.2773
     32 C25         3.8051  -17.1800    1.6406 C.3       1 <0>         0.0116
     33 O5          0.0513  -15.4148    2.1054 O.3       1 <0>        -0.2862
     34 C26        -1.2008  -14.7372    2.2282 C.3       1 <0>         0.0146
     35 H1          1.0989    1.8635   -0.0472 H         1 <0>         0.0931
     36 H2         -0.4412    1.8680   -0.9395 H         1 <0>         0.0908
     37 H3         -0.4439    1.8673    0.8404 H         1 <0>         0.0853
     38 H4          0.0781   -0.4890   -2.2117 H         1 <0>         0.1650
     39 H5          0.0739   -3.1362   -2.5500 H         1 <0>         0.4336
     40 H6         -0.1493   -4.5443   -3.7176 H         1 <0>         0.1377
     41 H7         -0.1482   -6.5196   -5.1737 H         1 <0>         0.1450
     42 H8          0.0625   -8.7587   -4.2476 H         1 <0>         0.1422
     43 H9          0.3246   -6.2847    0.6998 H         1 <0>         0.1832
     44 H10         0.5441   -8.5322    1.6140 H         1 <0>         0.1432
     45 H11         0.3095  -10.2412   -2.2858 H         1 <0>         0.1446
     46 H12         2.7674   -9.7196   -0.7801 H         1 <0>         0.1841
     47 H13         4.9137  -10.8963   -0.9840 H         1 <0>         0.2123
     48 H14        -0.0922  -12.9716    1.2511 H         1 <0>         0.1728
     49 H15         4.3348  -15.1424    0.7223 H         1 <0>         0.1715
     50 H16         3.8078  -18.2035    2.0155 H         1 <0>         0.1217
     51 H17         4.0607  -17.1805    0.5810 H         1 <0>         0.0694
     52 H18         4.5377  -16.5896    2.1908 H         1 <0>         0.0695
     53 H19        -1.9306  -15.4029    2.6892 H         1 <0>         0.1190
     54 H20        -1.0747  -13.8504    2.8494 H         1 <0>         0.0675
     55 H21        -1.5524  -14.4413    1.2398 H         1 <0>         0.0670
     56 H22         5.0773  -13.0806   -0.2421 H         1 <0>         0.4476
@<TRIPOS>BOND
     1    1    2 1
     2    1   35 1
     3    1   36 1
     4    1   37 1
     5    2    6 2
     6    2    3 1
     7    3    4 2
     8    3   38 1
     9    4    5 1
    10    4    7 1
    11    5    6 1
    12    7    8 am
    13    7   39 1
    14    8    9 2
    15    8   10 1
    16   10   15 ar
    17   10   11 ar
    18   11   12 ar
    19   11   40 1
    20   12   13 ar
    21   12   41 1
    22   13   14 ar
    23   13   42 1
    24   14   19 ar
    25   14   15 ar
    26   15   16 ar
    27   16   17 ar
    28   16   43 1
    29   17   18 ar
    30   17   44 1
    31   18   19 ar
    32   18   20 1
    33   19   45 1
    34   20   21 1
    35   21   26 ar
    36   21   22 ar
    37   22   23 ar
    38   22   46 1
    39   23   24 ar
    40   23   47 1
    41   24   25 ar
    42   24   56 1
    43   25   30 ar
    44   25   26 ar
    45   26   27 ar
    46   27   28 ar
    47   27   48 1
    48   28   29 ar
    49   28   33 1
    50   29   30 ar
    51   29   31 1
    52   30   49 1
    53   31   32 1
    54   32   50 1
    55   32   51 1
    56   32   52 1
    57   33   34 1
    58   34   53 1
    59   34   54 1
    60   34   55 1
@<TRIPOS>MOLECULE
CHEMBL221875
   45    48     0     0     0
SMALL
USER_CHARGES

@<TRIPOS>ATOM
      1 C1         11.1144    5.6363   -0.0286 C.ar      1 <0>        -0.1114
      2 C2          9.7552    5.3775   -0.0188 C.ar      1 <0>        -0.1113
      3 C3          9.2977    4.0761   -0.0285 C.ar      1 <0>        -0.1107
      4 C4         10.2095    3.0191   -0.0488 C.ar      1 <0>        -0.0028
      5 C5         11.5795    3.2874   -0.0591 C.ar      1 <0>        -0.0992
      6 C6         12.0235    4.5935   -0.0487 C.ar      1 <0>        -0.1110
      7 C7          9.7266    1.6225   -0.0588 C.2       1 <0>        -0.1658
      8 C8         10.4375    0.4521   -0.0727 C.2       1 <0>         0.0723
      9 N1          9.7398   -0.6644   -0.0791 N.2       1 <0>        -0.5061
     10 C9          8.4224   -0.6475   -0.0725 C.2       1 <0>         0.2557
     11 S1          8.0551    0.9947   -0.0483 S.3       1 <0>         0.1355
     12 N2          7.5492   -1.7233   -0.0782 N.pl3     1 <0>        -0.5989
     13 C10         8.0421   -3.0188   -0.2001 C.ar      1 <0>         0.3935
     14 C11         7.1563   -4.0855   -0.3147 C.ar      1 <0>        -0.1981
     15 C12         7.6599   -5.3679   -0.4356 C.ar      1 <0>        -0.0767
     16 C13         9.0378   -5.5414   -0.4379 C.ar      1 <0>        -0.1961
     17 C14         9.8584   -4.4376   -0.3204 C.ar      1 <0>         0.1589
     18 N3          9.3500   -3.2248   -0.2115 N.ar      1 <0>        -0.4559
     19 C15         6.7343   -6.5505   -0.5615 C.3       1 <0>         0.0495
     20 N4          6.4478   -6.7991   -1.9807 N.4       1 <0>        -0.3931
     21 C16         7.6684   -7.2878   -2.6717 C.3       1 <0>        -0.0070
     22 C17         7.1035   -8.0138   -3.9184 C.3       1 <0>        -0.1453
     23 C18         5.8205   -8.6845   -3.3760 C.3       1 <0>        -0.1450
     24 C19         5.4472   -7.8797   -2.1173 C.3       1 <0>        -0.0087
     25 H1         11.4672    6.6571   -0.0251 H         1 <0>         0.1282
     26 H2          9.0509    6.1961   -0.0031 H         1 <0>         0.1292
     27 H3          8.2365    3.8754   -0.0201 H         1 <0>         0.1213
     28 H4         12.2901    2.4743   -0.0744 H         1 <0>         0.1273
     29 H5         13.0830    4.8024   -0.0567 H         1 <0>         0.1306
     30 H6         11.5175    0.4452   -0.0783 H         1 <0>         0.1787
     31 H7          6.5943   -1.5733    0.0028 H         1 <0>         0.4379
     32 H8          6.0899   -3.9144   -0.3089 H         1 <0>         0.1434
     33 H9          9.4630   -6.5299   -0.5304 H         1 <0>         0.1434
     34 H10        10.9305   -4.5679   -0.3214 H         1 <0>         0.1709
     35 H11         7.2081   -7.4306   -0.1269 H         1 <0>         0.1417
     36 H12         5.8036   -6.3411   -0.0343 H         1 <0>         0.1400
     37 H13         8.3034   -6.4528   -2.9676 H         1 <0>         0.1338
     38 H14         8.2172   -7.9837   -2.0370 H         1 <0>         0.1349
     39 H15         6.8620   -7.2987   -4.7047 H         1 <0>         0.0973
     40 H16         7.8072   -8.7635   -4.2801 H         1 <0>         0.1174
     41 H17         5.0210   -8.6244   -4.1144 H         1 <0>         0.1052
     42 H18         6.0184   -9.7243   -3.1153 H         1 <0>         0.1047
     43 H19         5.4772   -8.5265   -1.2405 H         1 <0>         0.1324
     44 H20         4.4515   -7.4514   -2.2322 H         1 <0>         0.1328
     45 H21         6.1116   -5.9559   -2.4212 H         1 <0>         0.4267
@<TRIPOS>BOND
     1    1    6 ar
     2    1    2 ar
     3    1   25 1
     4    2    3 ar
     5    2   26 1
     6    3    4 ar
     7    3   27 1
     8    4    5 ar
     9    4    7 1
    10    5    6 ar
    11    5   28 1
    12    6   29 1
    13    7   11 1
    14    7    8 2
    15    8    9 1
    16    8   30 1
    17    9   10 2
    18   10   11 1
    19   10   12 1
    20   12   13 1
    21   12   31 1
    22   13   18 ar
    23   13   14 ar
    24   14   15 ar
    25   14   32 1
    26   15   16 ar
    27   15   19 1
    28   16   17 ar
    29   16   33 1
    30   17   18 ar
    31   17   34 1
    32   19   20 1
    33   19   35 1
    34   19   36 1
    35   20   24 1
    36   20   21 1
    37   20   45 1
    38   21   22 1
    39   21   37 1
    40   21   38 1
    41   22   23 1
    42   22   39 1
    43   22   40 1
    44   23   24 1
    45   23   41 1
    46   23   42 1
    47   24   43 1
    48   24   44 1
@<TRIPOS>MOLECULE
CHEMBL1081312
   41    45     0     0     0
SMALL
USER_CHARGES

@<TRIPOS>ATOM
      1 C1          1.5284   -0.1439   -2.7653 C.2       1 <0>        -0.1925
      2 C2          2.1708    0.8864   -2.1937 C.2       1 <0>         0.0683
      3 N1          1.8042    0.9939   -0.8790 N.pl3     1 <0>        -0.5791
      4 H1          2.1371    1.6642   -0.2619 H         1 <0>         0.4234
      5 C3          0.8951    0.0131   -0.5616 C.ar      1 <0>         0.2950
      6 C4          0.6824   -0.7435   -1.7311 C.ar      1 <0>        -0.1507
      7 C5         -0.2044   -1.8196   -1.7033 C.ar      1 <0>        -0.0143
      8 C6         -0.8507   -2.1030   -0.5010 C.ar      1 <0>        -0.1039
      9 C7         -0.5878   -1.3066    0.6171 C.ar      1 <0>         0.1760
     10 N2          0.2540   -0.2990    0.5576 N.ar      1 <0>        -0.4901
     11 C8         -1.8050   -3.2342   -0.4097 C.2       1 <0>         0.1764
     12 C9         -1.6080   -4.5794   -0.9490 C.ar      1 <0>        -0.3244
     13 C10        -0.5827   -5.2239   -1.6608 C.ar      1 <0>         0.5183
     14 N3         -0.7537   -6.4983   -1.9983 N.ar      1 <0>        -0.6050
     15 C11        -1.8582   -7.1475   -1.6750 C.ar      1 <0>         0.3860
     16 N4         -2.8436   -6.5857   -1.0104 N.ar      1 <0>        -0.5737
     17 C12        -2.7661   -5.3113   -0.6270 C.ar      1 <0>         0.3753
     18 N5         -3.5918   -4.4667    0.0532 N.pl3     1 <0>        -0.3680
     19 N6         -2.9794   -3.2148    0.1747 N.2       1 <0>        -0.2283
     20 C13        -4.9130   -4.8172    0.5804 C.3       1 <0>         0.1631
     21 C14        -5.9820   -3.8679    0.0010 C.3       1 <0>        -0.1328
     22 C15        -6.9653   -3.6408    1.1760 C.3       1 <0>        -0.1220
     23 C16        -6.0219   -3.5706    2.4024 C.3       1 <0>        -0.1212
     24 C17        -4.9383   -4.6282    2.1073 C.3       1 <0>        -0.1325
     25 N7          0.5741   -4.5502   -2.0020 N.pl3     1 <0>        -0.8293
     26 H2          1.6151   -0.4663   -3.7924 H         1 <0>         0.1556
     27 H3          2.8733    1.5347   -2.6963 H         1 <0>         0.1827
     28 H4         -0.3851   -2.4149   -2.5862 H         1 <0>         0.1433
     29 H5         -1.0871   -1.5238    1.5498 H         1 <0>         0.1673
     30 H6         -1.9556   -8.1822   -1.9691 H         1 <0>         0.2049
     31 H7         -5.1534   -5.8500    0.3280 H         1 <0>         0.1144
     32 H8         -5.5292   -2.9249   -0.3052 H         1 <0>         0.0817
     33 H9         -6.4936   -4.3371   -0.8394 H         1 <0>         0.0738
     34 H10        -7.5067   -2.7031    1.0509 H         1 <0>         0.0734
     35 H11        -7.6570   -4.4781    1.2681 H         1 <0>         0.0719
     36 H12        -5.5755   -2.5795    2.4841 H         1 <0>         0.0710
     37 H13        -6.5627   -3.8228    3.3146 H         1 <0>         0.0704
     38 H14        -5.1919   -5.5690    2.5958 H         1 <0>         0.0772
     39 H15        -3.9677   -4.2756    2.4561 H         1 <0>         0.0753
     40 H16         0.7944   -3.7127   -1.5651 H         1 <0>         0.4121
     41 H17         1.1661   -4.9147   -2.6785 H         1 <0>         0.4111
@<TRIPOS>BOND
     1    1    6 1
     2    1    2 2
     3    1   26 1
     4    2    3 1
     5    2   27 1
     6    3    4 1
     7    3    5 1
     8    5   10 ar
     9    5    6 ar
    10    6    7 ar
    11    7    8 ar
    12    7   28 1
    13    8    9 ar
    14    8   11 1
    15    9   10 ar
    16    9   29 1
    17   11   19 2
    18   11   12 1
    19   12   17 ar
    20   12   13 ar
    21   13   14 ar
    22   13   25 1
    23   14   15 ar
    24   15   16 ar
    25   15   30 1
    26   16   17 ar
    27   17   18 1
    28   18   19 1
    29   18   20 1
    30   20   24 1
    31   20   21 1
    32   20   31 1
    33   21   22 1
    34   21   32 1
    35   21   33 1
    36   22   23 1
    37   22   34 1
    38   22   35 1
    39   23   24 1
    40   23   36 1
    41   23   37 1
    42   24   38 1
    43   24   39 1
    44   25   40 1
    45   25   41 1
@<TRIPOS>MOLECULE
CHEMBL410711
   46    49     0     0     0
SMALL
USER_CHARGES

@<TRIPOS>ATOM
      1 C1          2.3006    1.1356    1.7089 C.ar      1 <0>        -0.0970
      2 C2          1.7156    1.2121    2.9597 C.ar      1 <0>        -0.0880
      3 C3          1.0121    0.1341    3.4643 C.ar      1 <0>        -0.1613
      4 C4          0.8919   -1.0234    2.7202 C.ar      1 <0>        -0.0722
      5 C5          1.4780   -1.1035    1.4641 C.ar      1 <0>         0.1628
      6 C6          2.1837   -0.0187    0.9598 C.ar      1 <0>        -0.1136
      7 N1          1.3585   -2.2749    0.7079 N.am      1 <0>        -0.6803
      8 C7          0.2413   -3.0235    0.7972 C.2       1 <0>         0.7034
      9 O1         -0.7000   -2.6341    1.4610 O.2       1 <0>        -0.5480
     10 N2          0.1676   -4.2038    0.1506 N.am      1 <0>        -0.6795
     11 C8         -1.0279   -4.9292    0.1537 C.ar      1 <0>         0.1663
     12 C9         -2.2457   -4.2597    0.1621 C.ar      1 <0>        -0.1157
     13 C10        -3.4256   -4.9728    0.1652 C.ar      1 <0>        -0.0803
     14 C11        -3.3965   -6.3664    0.1594 C.ar      1 <0>        -0.0657
     15 C12        -2.1738   -7.0358    0.1505 C.ar      1 <0>        -0.0847
     16 C13        -0.9964   -6.3185    0.1426 C.ar      1 <0>        -0.1411
     17 C14        -4.6648   -7.1361    0.1631 C.ar      1 <0>        -0.0265
     18 C15        -5.6642   -6.8364    1.0909 C.ar      1 <0>        -0.0737
     19 C16        -6.8441   -7.5543    1.0925 C.ar      1 <0>        -0.1218
     20 C17        -7.0462   -8.5710    0.1807 C.ar      1 <0>        -0.0430
     21 C18        -6.0548   -8.8818   -0.7528 C.ar      1 <0>        -0.1574
     22 C19        -4.8654   -8.1526   -0.7585 C.ar      1 <0>        -0.0734
     23 C20        -4.0215   -8.7190   -1.8725 C.3       1 <0>         0.1409
     24 N3         -4.8137   -9.7933   -2.4819 N.am      1 <0>        -0.7243
     25 C21        -5.9835   -9.8916   -1.8267 C.2       1 <0>         0.5611
     26 O2         -6.8632  -10.6875   -2.0914 O.2       1 <0>        -0.5237
     27 C22         0.3763    0.2219    4.8278 C.3       1 <0>         0.5090
     28 F1          0.6333    1.4804    5.3821 F         1 <0>        -0.1759
     29 F2         -1.0055    0.0373    4.7107 F         1 <0>        -0.1722
     30 F3          0.9108   -0.7706    5.6564 F         1 <0>        -0.1759
     31 H1          2.8456    1.9809    1.3156 H         1 <0>         0.1420
     32 H2          1.8087    2.1158    3.5438 H         1 <0>         0.1417
     33 H3          0.3429   -1.8654    3.1152 H         1 <0>         0.1479
     34 H4          2.6404   -0.0777   -0.0170 H         1 <0>         0.1371
     35 H5          2.0796   -2.5480    0.1195 H         1 <0>         0.4129
     36 H6          0.9438   -4.5500   -0.3168 H         1 <0>         0.4106
     37 H7         -2.2678   -3.1799    0.1666 H         1 <0>         0.1394
     38 H8         -4.3718   -4.4521    0.1724 H         1 <0>         0.1302
     39 H9         -2.1489   -8.1155    0.1464 H         1 <0>         0.1288
     40 H10        -0.0489   -6.8367    0.1319 H         1 <0>         0.1297
     41 H11        -5.5143   -6.0429    1.8080 H         1 <0>         0.1369
     42 H12        -7.6140   -7.3188    1.8124 H         1 <0>         0.1377
     43 H13        -7.9721   -9.1270    0.1894 H         1 <0>         0.1347
     44 H14        -3.8079   -7.9460   -2.6108 H         1 <0>         0.0987
     45 H15        -3.0915   -9.1211   -1.4706 H         1 <0>         0.0968
     46 H16        -4.5356  -10.3471   -3.2282 H         1 <0>         0.4265
@<TRIPOS>BOND
     1    1    6 ar
     2    1    2 ar
     3    1   31 1
     4    2    3 ar
     5    2   32 1
     6    3    4 ar
     7    3   27 1
     8    4    5 ar
     9    4   33 1
    10    5    6 ar
    11    5    7 1
    12    6   34 1
    13    7    8 am
    14    7   35 1
    15    8    9 2
    16    8   10 am
    17   10   11 1
    18   10   36 1
    19   11   16 ar
    20   11   12 ar
    21   12   13 ar
    22   12   37 1
    23   13   14 ar
    24   13   38 1
    25   14   15 ar
    26   14   17 1
    27   15   16 ar
    28   15   39 1
    29   16   40 1
    30   17   22 ar
    31   17   18 ar
    32   18   19 ar
    33   18   41 1
    34   19   20 ar
    35   19   42 1
    36   20   21 ar
    37   20   43 1
    38   21   25 1
    39   21   22 ar
    40   22   23 1
    41   23   24 1
    42   23   44 1
    43   23   45 1
    44   24   25 am
    45   24   46 1
    46   25   26 2
    47   27   28 1
    48   27   29 1
    49   27   30 1
@<TRIPOS>MOLECULE
CHEMBL411284
   52    56     0     0     0
SMALL
USER_CHARGES

@<TRIPOS>ATOM
      1 C1         -1.3043    0.1340   -1.4950 C.3       1 <0>         0.0215
      2 O1         -0.4449   -0.5359   -0.5706 O.3       1 <0>        -0.3001
      3 C2          0.8918   -0.4701   -0.8114 C.ar      1 <0>         0.1095
      4 C3          1.3491    0.2211   -1.8968 C.ar      1 <0>        -0.1357
      5 C4          2.7258    0.2895   -2.1457 C.ar      1 <0>        -0.1545
      6 C5          3.6348   -0.3577   -1.2715 C.ar      1 <0>         0.1972
      7 C6          3.1432   -1.0604   -0.1644 C.ar      1 <0>        -0.1866
      8 C7          1.7854   -1.1080    0.0608 C.ar      1 <0>         0.1686
      9 O2          1.3063   -1.7847    1.1368 O.3       1 <0>        -0.2956
     10 C8          2.2666   -2.4134    1.9881 C.3       1 <0>         0.0194
     11 N1          4.9483   -0.2763   -1.5323 N.ar      1 <0>        -0.5250
     12 C9          5.3778    0.3903   -2.5770 C.ar      1 <0>         0.3387
     13 N2          4.5653    1.0098   -3.4191 N.ar      1 <0>        -0.5743
     14 C10         3.2512    0.9916   -3.2538 C.ar      1 <0>         0.4000
     15 O3          2.4333    1.6295   -4.1228 O.3       1 <0>        -0.2387
     16 C11         3.0035    2.3718   -5.1079 C.ar      1 <0>         0.0965
     17 C12         3.5816    1.7316   -6.2080 C.ar      1 <0>        -0.1052
     18 C13         4.1596    2.4495   -7.2100 C.ar      1 <0>        -0.0979
     19 C14         4.1776    3.8497   -7.1420 C.ar      1 <0>        -0.0066
     20 C15         3.5931    4.5028   -6.0294 C.ar      1 <0>        -0.0488
     21 C16         2.9997    3.7348   -5.0136 C.ar      1 <0>        -0.1017
     22 C17         3.6107    5.9070   -5.9623 C.ar      1 <0>        -0.0675
     23 C18         4.1863    6.6324   -6.9622 C.ar      1 <0>        -0.1275
     24 C19         4.7644    6.0098   -8.0611 C.ar      1 <0>        -0.0668
     25 C20         4.7707    4.6268   -8.1683 C.ar      1 <0>        -0.1256
     26 C21         5.3867    3.9724   -9.3375 C.2       1 <0>         0.5685
     27 O4          5.2928    2.7685   -9.4800 O.2       1 <0>        -0.5265
     28 N3          6.0536    4.7088  -10.2482 N.am      1 <0>        -0.6967
     29 C22         6.6656    4.0587  -11.4097 C.3       1 <0>         0.0766
     30 C23         8.0776    4.4977  -11.8025 C.3       1 <0>        -0.1912
     31 C24         6.8814    4.9093  -12.6631 C.3       1 <0>        -0.1875
     32 H1         -1.0617    1.1966   -1.5122 H         1 <0>         0.0591
     33 H2         -1.1650   -0.2865   -2.4910 H         1 <0>         0.0595
     34 H3         -2.3417    0.0031   -1.1872 H         1 <0>         0.1066
     35 H4          0.6526    0.7123   -2.5602 H         1 <0>         0.1533
     36 H5          3.8242   -1.5585    0.5098 H         1 <0>         0.1585
     37 H6          2.9417   -1.6596    2.3931 H         1 <0>         0.0626
     38 H7          1.7521   -2.9175    2.8061 H         1 <0>         0.1079
     39 H8          2.8384   -3.1427    1.4143 H         1 <0>         0.0627
     40 H9          6.4415    0.4362   -2.7583 H         1 <0>         0.2010
     41 H10         3.5699    0.6531   -6.2635 H         1 <0>         0.1293
     42 H11         4.6030    1.9422   -8.0540 H         1 <0>         0.1764
     43 H12         2.5465    4.2189   -4.1612 H         1 <0>         0.1377
     44 H13         3.1670    6.4118   -5.1169 H         1 <0>         0.1353
     45 H14         4.1927    7.7106   -6.8992 H         1 <0>         0.1348
     46 H15         5.2139    6.6084   -8.8396 H         1 <0>         0.1287
     47 H16         6.1285    5.6692  -10.1346 H         1 <0>         0.4018
     48 H17         6.4065    3.0096  -11.5520 H         1 <0>         0.1413
     49 H18         8.5513    5.2702  -11.1967 H         1 <0>         0.0980
     50 H19         8.7479    3.7372  -12.2032 H         1 <0>         0.1050
     51 H20         6.7647    4.4196  -13.6299 H         1 <0>         0.1062
     52 H21         6.5681    5.9525  -12.6234 H         1 <0>         0.0981
@<TRIPOS>BOND
     1    1    2 1
     2    1   32 1
     3    1   33 1
     4    1   34 1
     5    2    3 1
     6    3    8 ar
     7    3    4 ar
     8    4    5 ar
     9    4   35 1
    10    5   14 ar
    11    5    6 ar
    12    6    7 ar
    13    6   11 ar
    14    7    8 ar
    15    7   36 1
    16    8    9 1
    17    9   10 1
    18   10   37 1
    19   10   38 1
    20   10   39 1
    21   11   12 ar
    22   12   13 ar
    23   12   40 1
    24   13   14 ar
    25   14   15 1
    26   15   16 1
    27   16   21 ar
    28   16   17 ar
    29   17   18 ar
    30   17   41 1
    31   18   19 ar
    32   18   42 1
    33   19   25 ar
    34   19   20 ar
    35   20   21 ar
    36   20   22 ar
    37   21   43 1
    38   22   23 ar
    39   22   44 1
    40   23   24 ar
    41   23   45 1
    42   24   25 ar
    43   24   46 1
    44   25   26 1
    45   26   27 2
    46   26   28 am
    47   28   29 1
    48   28   47 1
    49   29   31 1
    50   29   30 1
    51   29   48 1
    52   30   31 1
    53   30   49 1
    54   30   50 1
    55   31   51 1
    56   31   52 1
@<TRIPOS>MOLECULE
CHEMBL218632
   55    58     0     0     0
SMALL
USER_CHARGES

@<TRIPOS>ATOM
      1 C1         -0.0741    1.4770   -0.0375 C.3       1 <0>        -0.1210
      2 C2         -0.0053   -0.0283   -0.0157 C.ar      1 <0>        -0.0427
      3 C3          0.0000   -0.7350   -1.2043 C.ar      1 <0>        -0.1161
      4 C4          0.0628   -2.1131   -1.1923 C.ar      1 <0>        -0.0763
      5 C5          0.1212   -2.7981    0.0230 C.ar      1 <0>        -0.1357
      6 C6          0.1157   -2.0840    1.2213 C.ar      1 <0>        -0.0465
      7 C7          0.0581   -0.7003    1.1976 C.ar      1 <0>         0.0845
      8 O1          0.0581   -0.0003    2.3625 O.3       1 <0>        -0.2016
      9 C8          1.2443    0.4638    2.8260 C.ar      1 <0>         0.3561
     10 C9          1.3043    1.0945    4.0755 C.ar      1 <0>        -0.1264
     11 C10         2.5363    1.5649    4.5344 C.ar      1 <0>        -0.0124
     12 C11         3.6500    1.3865    3.7302 C.ar      1 <0>        -0.2093
     13 C12         3.5115    0.7543    2.5090 C.ar      1 <0>         0.1585
     14 N1          2.3376    0.3136    2.0984 N.ar      1 <0>        -0.5326
     15 C13         0.0817    1.2598    4.8957 C.ar      1 <0>         0.2672
     16 C14         0.1420    1.8946    6.1402 C.ar      1 <0>        -0.2855
     17 C15        -1.0253    2.0263    6.8697 C.ar      1 <0>         0.1957
     18 N2         -2.1570    1.5513    6.3727 N.ar      1 <0>        -0.5712
     19 C16        -2.1853    0.9539    5.1903 C.ar      1 <0>         0.5680
     20 N3         -1.0926    0.8112    4.4568 N.ar      1 <0>        -0.5441
     21 N4         -3.3893    0.4711    4.7075 N.pl3     1 <0>        -0.7024
     22 C17        -4.6110    0.6236    5.5016 C.3       1 <0>         0.1068
     23 C18         0.1880   -4.2747    0.0398 C.2       1 <0>         0.5636
     24 O2          0.2387   -4.8689    1.0991 O.2       1 <0>        -0.5074
     25 N5          0.1927   -4.9623   -1.1194 N.am      1 <0>        -0.6667
     26 C19         0.1329   -6.3594   -1.1039 C.ar      1 <0>         0.1501
     27 C20         0.6651   -7.0906   -2.1584 C.ar      1 <0>        -0.1178
     28 C21         0.6048   -8.4700   -2.1398 C.ar      1 <0>        -0.0959
     29 C22         0.0150   -9.1236   -1.0731 C.ar      1 <0>        -0.0913
     30 C23        -0.5161   -8.3988   -0.0223 C.ar      1 <0>        -0.1605
     31 C24        -0.4535   -7.0190   -0.0318 C.ar      1 <0>        -0.0822
     32 C25        -1.1583   -9.1152    1.1376 C.3       1 <0>         0.5091
     33 F1         -1.0962  -10.4965    0.9247 F         1 <0>        -0.1761
     34 F2         -0.4789   -8.7943    2.3178 F         1 <0>        -0.1726
     35 F3         -2.4957   -8.7198    1.2472 F         1 <0>        -0.1757
     36 H1          0.9355    1.8864   -0.0706 H         1 <0>         0.0773
     37 H2         -0.6274    1.8027   -0.9183 H         1 <0>         0.0750
     38 H3         -0.5802    1.8306    0.8608 H         1 <0>         0.0731
     39 H4         -0.0454   -0.2064   -2.1450 H         1 <0>         0.1384
     40 H5          0.0664   -2.6619   -2.1224 H         1 <0>         0.1304
     41 H6          0.1603   -2.6082    2.1645 H         1 <0>         0.1418
     42 H7          2.6188    2.0561    5.4927 H         1 <0>         0.1507
     43 H8          4.6181    1.7386    4.0546 H         1 <0>         0.1468
     44 H9          4.3796    0.6155    1.8817 H         1 <0>         0.1651
     45 H10         1.0784    2.2730    6.5228 H         1 <0>         0.1441
     46 H11        -1.0140    2.5111    7.8347 H         1 <0>         0.1694
     47 H12        -3.4242    0.0317    3.8435 H         1 <0>         0.4154
     48 H13        -4.4882    0.1159    6.4583 H         1 <0>         0.0592
     49 H14        -4.8022    1.6827    5.6742 H         1 <0>         0.0590
     50 H15        -5.4514    0.1857    4.9630 H         1 <0>         0.0756
     51 H16         0.2376   -4.4881   -1.9644 H         1 <0>         0.4147
     52 H17         1.1251   -6.5808   -2.9919 H         1 <0>         0.1372
     53 H18         1.0183   -9.0391   -2.9593 H         1 <0>         0.1416
     54 H19        -0.0312  -10.2026   -1.0612 H         1 <0>         0.1411
     55 H20        -0.8642   -6.4535    0.7916 H         1 <0>         0.1545
@<TRIPOS>BOND
     1    1    2 1
     2    1   36 1
     3    1   37 1
     4    1   38 1
     5    2    7 ar
     6    2    3 ar
     7    3    4 ar
     8    3   39 1
     9    4    5 ar
    10    4   40 1
    11    5    6 ar
    12    5   23 1
    13    6    7 ar
    14    6   41 1
    15    7    8 1
    16    8    9 1
    17    9   14 ar
    18    9   10 ar
    19   10   11 ar
    20   10   15 1
    21   11   12 ar
    22   11   42 1
    23   12   13 ar
    24   12   43 1
    25   13   14 ar
    26   13   44 1
    27   15   20 ar
    28   15   16 ar
    29   16   17 ar
    30   16   45 1
    31   17   18 ar
    32   17   46 1
    33   18   19 ar
    34   19   20 ar
    35   19   21 1
    36   21   22 1
    37   21   47 1
    38   22   48 1
    39   22   49 1
    40   22   50 1
    41   23   24 2
    42   23   25 am
    43   25   26 1
    44   25   51 1
    45   26   31 ar
    46   26   27 ar
    47   27   28 ar
    48   27   52 1
    49   28   29 ar
    50   28   53 1
    51   29   30 ar
    52   29   54 1
    53   30   31 ar
    54   30   32 1
    55   31   55 1
    56   32   33 1
    57   32   34 1
    58   32   35 1
@<TRIPOS>MOLECULE
CHEMBL515625
   42    45     0     0     0
SMALL
USER_CHARGES

@<TRIPOS>ATOM
      1 C1          0.4150    0.6532    0.9625 C.3       1 <0>        -0.0783
      2 C2         -0.2020    0.3311   -0.3741 C.2       1 <0>         0.1032
      3 C3          0.0087   -0.8567   -1.1160 C.ar      1 <0>        -0.1905
      4 C4          0.7737   -2.0097   -0.8936 C.ar      1 <0>        -0.0175
      5 C5          0.7758   -3.0126   -1.8157 C.ar      1 <0>        -0.1789
      6 C6          0.0214   -2.9045   -2.9857 C.ar      1 <0>         0.1991
      7 C7         -0.7408   -1.7760   -3.2258 C.ar      1 <0>        -0.1385
      8 C8         -0.7543   -0.7429   -2.2940 C.ar      1 <0>         0.1505
      9 N1         -1.3866    0.4730   -2.2352 N.pl3     1 <0>        -0.5041
     10 H1         -1.9852    0.8366   -2.9063 H         1 <0>         0.4422
     11 N2         -1.0213    1.0957   -1.0355 N.2       1 <0>        -0.2551
     12 N3          0.0370   -3.9435   -3.9203 N.pl3     1 <0>        -0.6375
     13 C9         -0.0782   -3.6624   -5.2669 C.ar      1 <0>         0.4638
     14 C10        -0.1826   -4.7033   -6.2199 C.ar      1 <0>        -0.1822
     15 C11        -0.1747   -6.0530   -5.8469 C.ar      1 <0>        -0.1484
     16 C12        -0.2785   -7.0202   -6.8054 C.ar      1 <0>         0.1111
     17 C13        -0.3927   -6.6771   -8.1602 C.ar      1 <0>         0.1637
     18 C14        -0.4025   -5.3574   -8.5530 C.ar      1 <0>        -0.1841
     19 C15        -0.2981   -4.3490   -7.5868 C.ar      1 <0>         0.2012
     20 N4         -0.3037   -3.0481   -7.9175 N.ar      1 <0>        -0.5420
     21 C16        -0.2039   -2.1257   -6.9901 C.ar      1 <0>         0.3410
     22 N5         -0.0996   -2.4091   -5.7015 N.ar      1 <0>        -0.5787
     23 O1         -0.4942   -7.6573   -9.0953 O.3       1 <0>        -0.2971
     24 C17        -0.6078   -7.2441  -10.4585 C.3       1 <0>         0.0201
     25 O2         -0.2707   -8.3306   -6.4420 O.3       1 <0>        -0.3002
     26 C18        -0.1515   -8.6162   -5.0469 C.3       1 <0>         0.0214
     27 H2         -0.2331    0.2882    1.7593 H         1 <0>         0.0826
     28 H3          1.3900    0.1719    1.0380 H         1 <0>         0.0813
     29 H4          0.5343    1.7326    1.0570 H         1 <0>         0.0787
     30 H5          1.3613   -2.1029    0.0078 H         1 <0>         0.1337
     31 H6          1.3668   -3.8994   -1.6402 H         1 <0>         0.1298
     32 H7         -1.3230   -1.6971   -4.1321 H         1 <0>         0.1419
     33 H8          0.1288   -4.8622   -3.6227 H         1 <0>         0.4213
     34 H9         -0.0865   -6.3277   -4.8061 H         1 <0>         0.1398
     35 H10        -0.4900   -5.1018   -9.5987 H         1 <0>         0.1560
     36 H11        -0.2113   -1.0886   -7.2913 H         1 <0>         0.1967
     37 H12        -0.6812   -8.1226  -11.0996 H         1 <0>         0.1074
     38 H13        -1.5007   -6.6307  -10.5791 H         1 <0>         0.0622
     39 H14         0.2720   -6.6638  -10.7368 H         1 <0>         0.0623
     40 H15         0.7837   -8.2021   -4.6700 H         1 <0>         0.0576
     41 H16        -0.9889   -8.1687   -4.5116 H         1 <0>         0.0576
     42 H17        -0.1582   -9.6955   -4.8952 H         1 <0>         0.1070
@<TRIPOS>BOND
     1    1    2 1
     2    1   27 1
     3    1   28 1
     4    1   29 1
     5    2   11 2
     6    2    3 1
     7    3    8 ar
     8    3    4 ar
     9    4    5 ar
    10    4   30 1
    11    5    6 ar
    12    5   31 1
    13    6    7 ar
    14    6   12 1
    15    7    8 ar
    16    7   32 1
    17    8    9 1
    18    9   10 1
    19    9   11 1
    20   12   13 1
    21   12   33 1
    22   13   22 ar
    23   13   14 ar
    24   14   19 ar
    25   14   15 ar
    26   15   16 ar
    27   15   34 1
    28   16   17 ar
    29   16   25 1
    30   17   18 ar
    31   17   23 1
    32   18   19 ar
    33   18   35 1
    34   19   20 ar
    35   20   21 ar
    36   21   22 ar
    37   21   36 1
    38   23   24 1
    39   24   37 1
    40   24   38 1
    41   24   39 1
    42   25   26 1
    43   26   40 1
    44   26   41 1
    45   26   42 1
@<TRIPOS>MOLECULE
CHEMBL515625__1
   42    45     0     0     0
SMALL
USER_CHARGES

@<TRIPOS>ATOM
      1 C1          0.5036    1.3926   -0.1259 C.3       1 <0>        -0.0976
      2 C2         -0.1058    0.0239    0.0361 C.2       1 <0>         0.1186
      3 C3          0.0984   -0.8368    1.0984 C.ar      1 <0>        -0.2153
      4 C4          0.8549   -0.7828    2.2893 C.ar      1 <0>        -0.0229
      5 C5          0.8337   -1.8333    3.1449 C.ar      1 <0>        -0.1434
      6 C6          0.0753   -2.9834    2.8800 C.ar      1 <0>         0.2114
      7 C7         -0.6767   -3.0994    1.7491 C.ar      1 <0>        -0.1524
      8 C8         -0.6984   -2.0412    0.8166 C.ar      1 <0>         0.1272
      9 N1         -1.3012   -1.8370   -0.3409 N.2       1 <0>        -0.3107
     10 H1         -1.2595   -0.1836   -1.6533 H         1 <0>         0.4420
     11 N2         -0.9458   -0.5715   -0.8214 N.pl3     1 <0>        -0.4271
     12 N3          0.0916   -4.0368    3.7984 N.pl3     1 <0>        -0.6408
     13 C9          0.2057   -3.7735    5.1487 C.ar      1 <0>         0.4666
     14 C10         0.3423   -4.8258    6.0849 C.ar      1 <0>        -0.1830
     15 C11         0.3680   -6.1693    5.6910 C.ar      1 <0>        -0.1476
     16 C12         0.5022   -7.1482    6.6339 C.ar      1 <0>         0.1099
     17 C13         0.6141   -6.8231    7.9933 C.ar      1 <0>         0.1632
     18 C14         0.5912   -5.5097    8.4065 C.ar      1 <0>        -0.1843
     19 C15         0.4554   -4.4897    7.4565 C.ar      1 <0>         0.2016
     20 N4          0.4285   -3.1944    7.8074 N.ar      1 <0>        -0.5436
     21 C16         0.2997   -2.2608    6.8950 C.ar      1 <0>         0.3416
     22 N5          0.1958   -2.5269    5.6026 N.ar      1 <0>        -0.5758
     23 O1          0.7462   -7.8145    8.9126 O.3       1 <0>        -0.2976
     24 C17         0.8558   -7.4195   10.2815 C.3       1 <0>         0.0203
     25 O2          0.5270   -8.4525    6.2502 O.3       1 <0>        -0.3007
     26 C18         0.4082   -8.7197    4.8515 C.3       1 <0>         0.0214
     27 H2          1.4526    1.3075   -0.6554 H         1 <0>         0.0882
     28 H3         -0.1749    2.0273   -0.6959 H         1 <0>         0.0770
     29 H4          0.6740    1.8331    0.8565 H         1 <0>         0.0922
     30 H5          1.4476    0.0908    2.5169 H         1 <0>         0.1279
     31 H6          1.4155   -1.7841    4.0534 H         1 <0>         0.1388
     32 H7         -1.2516   -3.9955    1.5680 H         1 <0>         0.1293
     33 H8          0.0227   -4.9528    3.4870 H         1 <0>         0.4197
     34 H9          0.2817   -6.4302    4.6465 H         1 <0>         0.1396
     35 H10         0.6773   -5.2680    9.4556 H         1 <0>         0.1557
     36 H11         0.2814   -1.2285    7.2121 H         1 <0>         0.1977
     37 H12         1.7329   -6.7847   10.4074 H         1 <0>         0.0621
     38 H13        -0.0375   -6.8670   10.5729 H         1 <0>         0.0620
     39 H14         0.9556   -8.3056   10.9085 H         1 <0>         0.1069
     40 H15        -0.5395   -8.3247    4.4854 H         1 <0>         0.0576
     41 H16         1.2308   -8.2421    4.3192 H         1 <0>         0.0577
     42 H17         0.4426   -9.7960    4.6829 H         1 <0>         0.1066
@<TRIPOS>BOND
     1    1    2 1
     2    1   27 1
     3    1   28 1
     4    1   29 1
     5    2    3 2
     6    2   11 1
     7    3    4 ar
     8    3    8 ar
     9    4    5 ar
    10    4   30 1
    11    5    6 ar
    12    5   31 1
    13    6    7 ar
    14    6   12 1
    15    7    8 ar
    16    7   32 1
    17    8    9 2
    18    9   11 1
    19   10   11 1
    20   12   13 1
    21   12   33 1
    22   13   22 ar
    23   13   14 ar
    24   14   19 ar
    25   14   15 ar
    26   15   16 ar
    27   15   34 1
    28   16   17 ar
    29   16   25 1
    30   17   18 ar
    31   17   23 1
    32   18   19 ar
    33   18   35 1
    34   19   20 ar
    35   20   21 ar
    36   21   22 ar
    37   21   36 1
    38   23   24 1
    39   24   37 1
    40   24   38 1
    41   24   39 1
    42   25   26 1
    43   26   40 1
    44   26   41 1
    45   26   42 1
@<TRIPOS>MOLECULE
CHEMBL409349
   48    51     0     0     0
SMALL
USER_CHARGES

@<TRIPOS>ATOM
      1 C1          0.4892   -2.5067   -2.2599 C.3       1 <0>        -0.1152
      2 C2          1.1250   -2.3233   -0.9059 C.ar      1 <0>        -0.0615
      3 C3          2.3123   -1.6241   -0.7894 C.ar      1 <0>        -0.1353
      4 C4          2.8989   -1.4537    0.4512 C.ar      1 <0>        -0.0612
      5 C5          2.2999   -1.9814    1.5783 C.ar      1 <0>        -0.1257
      6 C6          1.1073   -2.6838    1.4647 C.ar      1 <0>         0.1670
      7 C7          0.5183   -2.8490    0.2180 C.ar      1 <0>        -0.1526
      8 N1          0.4979   -3.2198    2.6046 N.am      1 <0>        -0.6801
      9 C8          0.5971   -2.5789    3.7862 C.2       1 <0>         0.7036
     10 O1          1.1360   -1.4905    3.8441 O.2       1 <0>        -0.5492
     11 N2          0.0990   -3.1446    4.9035 N.am      1 <0>        -0.6820
     12 C9          0.1067   -2.4363    6.1086 C.ar      1 <0>         0.1738
     13 C10        -0.0603   -1.0563    6.1034 C.ar      1 <0>        -0.1149
     14 C11        -0.0532   -0.3555    7.2901 C.ar      1 <0>        -0.0745
     15 C12         0.1218   -1.0323    8.4973 C.ar      1 <0>        -0.0784
     16 C13         0.2892   -2.4172    8.4998 C.ar      1 <0>        -0.0906
     17 C14         0.2756   -3.1138    7.3105 C.ar      1 <0>        -0.1442
     18 C15         0.1304   -0.2816    9.7744 C.ar      1 <0>         0.0370
     19 C16        -0.9509    0.5187   10.1243 C.ar      1 <0>        -0.1426
     20 C17        -0.9408    1.2192   11.3179 C.ar      1 <0>        -0.0534
     21 C18         0.1368    1.1353   12.1754 C.ar      1 <0>        -0.1314
     22 C19         1.2305    0.3425   11.8486 C.ar      1 <0>         0.1042
     23 C20         1.2294   -0.3770   10.6451 C.ar      1 <0>        -0.1985
     24 C21         2.5003   -1.1114   10.5970 C.2       1 <0>         0.3820
     25 N3          3.1530   -0.8270   11.6906 N.2       1 <0>        -0.3584
     26 O2          2.3959    0.0740   12.4735 O.3       1 <0>        -0.0921
     27 N4          2.9274   -1.9519    9.5782 N.pl3     1 <0>        -0.8185
     28 C22         4.1933   -0.6918    0.5735 C.3       1 <0>        -0.1153
     29 H1         -0.1872   -1.6754   -2.4592 H         1 <0>         0.0724
     30 H2          1.2652   -2.5351   -3.0248 H         1 <0>         0.0689
     31 H3         -0.0703   -3.4420   -2.2749 H         1 <0>         0.0668
     32 H4          2.7826   -1.2105   -1.6692 H         1 <0>         0.1237
     33 H5          2.7587   -1.8483    2.5468 H         1 <0>         0.1350
     34 H6         -0.4113   -3.3912    0.1269 H         1 <0>         0.1245
     35 H7          0.0041   -4.0525    2.5445 H         1 <0>         0.4090
     36 H8         -0.2648   -4.0432    4.8714 H         1 <0>         0.4105
     37 H9         -0.1954   -0.5328    5.1684 H         1 <0>         0.1419
     38 H10        -0.1826    0.7167    7.2854 H         1 <0>         0.1327
     39 H11         0.4249   -2.9436    9.4330 H         1 <0>         0.1318
     40 H12         0.4004   -4.1866    7.3122 H         1 <0>         0.1326
     41 H13        -1.8012    0.5943    9.4627 H         1 <0>         0.1372
     42 H14        -1.7855    1.8386   11.5808 H         1 <0>         0.1433
     43 H15         0.1305    1.6877   13.1035 H         1 <0>         0.1413
     44 H16         2.4288   -1.9994    8.7475 H         1 <0>         0.4163
     45 H17         3.7245   -2.4918    9.6969 H         1 <0>         0.4123
     46 H18         3.9792    0.3652    0.7318 H         1 <0>         0.0732
     47 H19         4.7635   -1.0776    1.4185 H         1 <0>         0.0667
     48 H20         4.7734   -0.8119   -0.3415 H         1 <0>         0.0681
@<TRIPOS>BOND
     1    1    2 1
     2    1   29 1
     3    1   30 1
     4    1   31 1
     5    2    7 ar
     6    2    3 ar
     7    3    4 ar
     8    3   32 1
     9    4    5 ar
    10    4   28 1
    11    5    6 ar
    12    5   33 1
    13    6    7 ar
    14    6    8 1
    15    7   34 1
    16    8    9 am
    17    8   35 1
    18    9   10 2
    19    9   11 am
    20   11   12 1
    21   11   36 1
    22   12   17 ar
    23   12   13 ar
    24   13   14 ar
    25   13   37 1
    26   14   15 ar
    27   14   38 1
    28   15   16 ar
    29   15   18 1
    30   16   17 ar
    31   16   39 1
    32   17   40 1
    33   18   23 ar
    34   18   19 ar
    35   19   20 ar
    36   19   41 1
    37   20   21 ar
    38   20   42 1
    39   21   22 ar
    40   21   43 1
    41   22   26 1
    42   22   23 ar
    43   23   24 1
    44   24   25 2
    45   24   27 1
    46   25   26 1
    47   27   44 1
    48   27   45 1
    49   28   46 1
    50   28   47 1
    51   28   48 1
@<TRIPOS>MOLECULE
CHEMBL339856
   76    79     0     0     0
SMALL
USER_CHARGES

@<TRIPOS>ATOM
      1 C1         -0.0187    1.5258    0.0104 C.3       1 <0>        -0.1657
      2 C2          0.0021   -0.0041    0.0020 C.3       1 <0>         0.1879
      3 C3          0.7421   -0.5109    1.2415 C.3       1 <0>        -0.1656
      4 C4         -1.4333   -0.5336    0.0129 C.3       1 <0>        -0.1558
      5 N1          0.6878   -0.4765   -1.2033 N.am      1 <0>        -0.7366
      6 C5          1.9715   -0.1323   -1.4270 C.2       1 <0>         0.6938
      7 O1          2.5604    0.5703   -0.6286 O.2       1 <0>        -0.5138
      8 N2          2.6023   -0.5669   -2.5359 N.am      1 <0>        -0.6664
      9 C6          3.9247   -0.2123   -2.7663 C.ar      1 <0>         0.4500
     10 C7          4.5693   -0.6712   -3.9356 C.ar      1 <0>        -0.1611
     11 C8          5.8881   -0.3212   -4.1717 C.ar      1 <0>         0.0292
     12 C9          6.5368    0.4880   -3.2221 C.ar      1 <0>        -0.2399
     13 C10         7.8708    0.8895   -3.3824 C.ar      1 <0>         0.2200
     14 N3          8.4455    1.6459   -2.4759 N.ar      1 <0>        -0.5392
     15 C11         7.8088    2.0618   -1.3834 C.ar      1 <0>         0.4100
     16 C12         6.4944    1.7182   -1.1375 C.ar      1 <0>        -0.2406
     17 C13         5.8226    0.9111   -2.0693 C.ar      1 <0>         0.2386
     18 N4          4.5491    0.5491   -1.8926 N.ar      1 <0>        -0.4811
     19 N5          8.4837    2.8609   -0.4679 N.pl3     1 <0>        -0.7200
     20 C14         7.7998    3.3283    0.7404 C.3       1 <0>         0.1275
     21 C15         8.7592    4.1828    1.5712 C.3       1 <0>        -0.1272
     22 C16         8.0449    4.6711    2.8331 C.3       1 <0>         0.0584
     23 N6          8.9661    5.4915    3.6308 N.3       1 <0>        -0.5371
     24 C17        10.0741    4.6803    4.1558 C.3       1 <0>         0.0132
     25 C18        11.0391    5.5834    4.9285 C.3       1 <0>         0.0627
     26 O2         10.3239    6.2593    5.9663 O.3       1 <0>        -0.3855
     27 C19         9.2381    7.0593    5.4904 C.3       1 <0>         0.0629
     28 C20         8.2549    6.1711    4.7233 C.3       1 <0>         0.0169
     29 C21         3.8387   -1.5231   -4.9046 C.ar      1 <0>         0.0420
     30 C22         3.1397   -2.6438   -4.4607 C.ar      1 <0>        -0.1990
     31 C23         2.4582   -3.4378   -5.3688 C.ar      1 <0>         0.1767
     32 C24         2.4715   -3.1183   -6.7187 C.ar      1 <0>        -0.2976
     33 C25         3.1664   -2.0032   -7.1640 C.ar      1 <0>         0.1766
     34 C26         3.8449   -1.2016   -6.2604 C.ar      1 <0>        -0.1740
     35 O3          3.1769   -1.6937   -8.4872 O.3       1 <0>        -0.3103
     36 C27         2.4514   -2.5601   -9.3619 C.3       1 <0>         0.0252
     37 O4          1.7762   -4.5310   -4.9368 O.3       1 <0>        -0.3112
     38 C28         1.0960   -5.3046   -5.9272 C.3       1 <0>         0.0250
     39 H1          1.0039    1.9031    0.0027 H         1 <0>         0.0812
     40 H2         -0.5459    1.8868   -0.8726 H         1 <0>         0.0525
     41 H3         -0.5289    1.8773    0.9072 H         1 <0>         0.0633
     42 H4          0.2319   -0.1594    2.1383 H         1 <0>         0.0632
     43 H5          0.7568   -1.6008    1.2356 H         1 <0>         0.0528
     44 H6          1.7647   -0.1336    1.2338 H         1 <0>         0.0811
     45 H7         -1.9605   -0.1726   -0.8702 H         1 <0>         0.0620
     46 H8         -1.4185   -1.6235    0.0069 H         1 <0>         0.0624
     47 H9         -1.9435   -0.1821    0.9097 H         1 <0>         0.0762
     48 H10         0.2179   -1.0371   -1.8404 H         1 <0>         0.3942
     49 H11         2.1325   -1.1275   -3.1729 H         1 <0>         0.4149
     50 H12         6.4032   -0.6599   -5.0584 H         1 <0>         0.1509
     51 H13         8.4269    0.5757   -4.2534 H         1 <0>         0.1688
     52 H14         5.9925    2.0642   -0.2459 H         1 <0>         0.1414
     53 H15         9.4075    3.1089   -0.6290 H         1 <0>         0.4061
     54 H16         6.9323    3.9254    0.4590 H         1 <0>         0.0683
     55 H17         7.4748    2.4704    1.3290 H         1 <0>         0.0659
     56 H18         9.6266    3.5858    1.8527 H         1 <0>         0.0712
     57 H19         9.0841    5.0408    0.9827 H         1 <0>         0.0811
     58 H20         7.1775    5.2681    2.5517 H         1 <0>         0.0815
     59 H21         7.7200    3.8131    3.4217 H         1 <0>         0.0406
     60 H22         9.6798    3.9138    4.8229 H         1 <0>         0.0442
     61 H23        10.6025    4.2068    3.3283 H         1 <0>         0.0888
     62 H24        11.8317    4.9777    5.3677 H         1 <0>         0.0987
     63 H25        11.4743    6.3165    4.2494 H         1 <0>         0.0604
     64 H26         8.7282    7.5209    6.3359 H         1 <0>         0.0993
     65 H27         9.6209    7.8353    4.8276 H         1 <0>         0.0607
     66 H28         7.4552    6.7859    4.3101 H         1 <0>         0.0880
     67 H29         7.8315    5.4284    5.3995 H         1 <0>         0.0446
     68 H30         3.1296   -2.8935   -3.4101 H         1 <0>         0.1348
     69 H31         1.9400   -3.7392   -7.4246 H         1 <0>         0.1373
     70 H32         4.3820   -0.3311   -6.6071 H         1 <0>         0.1380
     71 H33         2.5417   -2.2003  -10.3868 H         1 <0>         0.1045
     72 H34         2.8585   -3.5690   -9.2938 H         1 <0>         0.0570
     73 H35         1.4007   -2.5720   -9.0723 H         1 <0>         0.0566
     74 H36         1.8166   -5.6777   -6.6549 H         1 <0>         0.0571
     75 H37         0.5935   -6.1456   -5.4494 H         1 <0>         0.1044
     76 H38         0.3590   -4.6805   -6.4327 H         1 <0>         0.0570
@<TRIPOS>BOND
     1    1    2 1
     2    1   39 1
     3    1   40 1
     4    1   41 1
     5    2    3 1
     6    2    4 1
     7    2    5 1
     8    3   42 1
     9    3   43 1
    10    3   44 1
    11    4   45 1
    12    4   46 1
    13    4   47 1
    14    5    6 am
    15    5   48 1
    16    6    7 2
    17    6    8 am
    18    8    9 1
    19    8   49 1
    20    9   18 ar
    21    9   10 ar
    22   10   11 ar
    23   10   29 1
    24   11   12 ar
    25   11   50 1
    26   12   17 ar
    27   12   13 ar
    28   13   14 ar
    29   13   51 1
    30   14   15 ar
    31   15   16 ar
    32   15   19 1
    33   16   17 ar
    34   16   52 1
    35   17   18 ar
    36   19   20 1
    37   19   53 1
    38   20   21 1
    39   20   54 1
    40   20   55 1
    41   21   22 1
    42   21   56 1
    43   21   57 1
    44   22   23 1
    45   22   58 1
    46   22   59 1
    47   23   28 1
    48   23   24 1
    49   24   25 1
    50   24   60 1
    51   24   61 1
    52   25   26 1
    53   25   62 1
    54   25   63 1
    55   26   27 1
    56   27   28 1
    57   27   64 1
    58   27   65 1
    59   28   66 1
    60   28   67 1
    61   29   34 ar
    62   29   30 ar
    63   30   31 ar
    64   30   68 1
    65   31   32 ar
    66   31   37 1
    67   32   33 ar
    68   32   69 1
    69   33   34 ar
    70   33   35 1
    71   34   70 1
    72   35   36 1
    73   36   71 1
    74   36   72 1
    75   36   73 1
    76   37   38 1
    77   38   74 1
    78   38   75 1
    79   38   76 1
@<TRIPOS>MOLECULE
CHEMBL339856__1
   77    80     0     0     0
SMALL
USER_CHARGES

@<TRIPOS>ATOM
      1 C1         -0.0187    1.5258    0.0104 C.3       1 <0>        -0.1649
      2 C2          0.0021   -0.0041    0.0020 C.3       1 <0>         0.1876
      3 C3          0.7421   -0.5109    1.2415 C.3       1 <0>        -0.1648
      4 C4         -1.4333   -0.5336    0.0129 C.3       1 <0>        -0.1577
      5 N1          0.6878   -0.4765   -1.2033 N.am      1 <0>        -0.7349
      6 C5          1.9715   -0.1323   -1.4270 C.2       1 <0>         0.6965
      7 O1          2.5604    0.5703   -0.6286 O.2       1 <0>        -0.5193
      8 N2          2.6023   -0.5669   -2.5359 N.am      1 <0>        -0.6653
      9 C6          3.9247   -0.2123   -2.7663 C.ar      1 <0>         0.4552
     10 C7          4.5693   -0.6712   -3.9356 C.ar      1 <0>        -0.1489
     11 C8          5.8881   -0.3212   -4.1717 C.ar      1 <0>         0.0258
     12 C9          6.5368    0.4880   -3.2221 C.ar      1 <0>        -0.2338
     13 C10         7.8708    0.8895   -3.3824 C.ar      1 <0>         0.2244
     14 N3          8.4455    1.6459   -2.4759 N.ar      1 <0>        -0.5405
     15 C11         7.8088    2.0618   -1.3834 C.ar      1 <0>         0.4020
     16 C12         6.4944    1.7182   -1.1375 C.ar      1 <0>        -0.2356
     17 C13         5.8226    0.9111   -2.0693 C.ar      1 <0>         0.2364
     18 N4          4.5491    0.5491   -1.8926 N.ar      1 <0>        -0.4833
     19 N5          8.4837    2.8609   -0.4679 N.pl3     1 <0>        -0.7296
     20 C14         7.7998    3.3283    0.7404 C.3       1 <0>         0.1343
     21 C15         8.7592    4.1828    1.5712 C.3       1 <0>        -0.1620
     22 C16         8.0449    4.6711    2.8331 C.3       1 <0>        -0.0056
     23 N6          8.9661    5.4915    3.6308 N.4       1 <0>        -0.3848
     24 C17        10.0751    4.6561    4.1117 C.3       1 <0>        -0.0493
     25 C18        11.0335    5.5132    4.9423 C.3       1 <0>         0.0363
     26 O2         10.3151    6.1077    6.0268 O.3       1 <0>        -0.3564
     27 C19         9.2091    6.9129    5.6095 C.3       1 <0>         0.0356
     28 C20         8.2473    6.0584    4.7801 C.3       1 <0>        -0.0436
     29 C21         3.8387   -1.5231   -4.9046 C.ar      1 <0>         0.0336
     30 C22         3.1397   -2.6438   -4.4607 C.ar      1 <0>        -0.1995
     31 C23         2.4582   -3.4378   -5.3688 C.ar      1 <0>         0.1788
     32 C24         2.4715   -3.1183   -6.7187 C.ar      1 <0>        -0.2950
     33 C25         3.1664   -2.0032   -7.1640 C.ar      1 <0>         0.1787
     34 C26         3.8449   -1.2016   -6.2604 C.ar      1 <0>        -0.1734
     35 O3          3.1769   -1.6937   -8.4872 O.3       1 <0>        -0.3098
     36 C27         2.4514   -2.5601   -9.3619 C.3       1 <0>         0.0242
     37 O4          1.7762   -4.5310   -4.9368 O.3       1 <0>        -0.3108
     38 C28         1.0960   -5.3046   -5.9272 C.3       1 <0>         0.0241
     39 H1          1.0039    1.9031    0.0027 H         1 <0>         0.0790
     40 H2         -0.5459    1.8868   -0.8726 H         1 <0>         0.0536
     41 H3         -0.5289    1.8773    0.9072 H         1 <0>         0.0637
     42 H4          0.2319   -0.1594    2.1383 H         1 <0>         0.0636
     43 H5          0.7568   -1.6008    1.2356 H         1 <0>         0.0540
     44 H6          1.7647   -0.1336    1.2338 H         1 <0>         0.0790
     45 H7         -1.9605   -0.1726   -0.8702 H         1 <0>         0.0634
     46 H8         -1.4185   -1.6235    0.0069 H         1 <0>         0.0638
     47 H9         -1.9435   -0.1821    0.9097 H         1 <0>         0.0772
     48 H10         0.2179   -1.0371   -1.8404 H         1 <0>         0.3963
     49 H11         2.1325   -1.1275   -3.1729 H         1 <0>         0.4174
     50 H12         6.4032   -0.6599   -5.0584 H         1 <0>         0.1541
     51 H13         8.4269    0.5757   -4.2534 H         1 <0>         0.1721
     52 H14         5.9925    2.0642   -0.2459 H         1 <0>         0.1387
     53 H15         9.4075    3.1089   -0.6290 H         1 <0>         0.4065
     54 H16         6.9323    3.9254    0.4590 H         1 <0>         0.0757
     55 H17         7.4748    2.4704    1.3290 H         1 <0>         0.0754
     56 H18         9.6266    3.5858    1.8527 H         1 <0>         0.0954
     57 H19         9.0841    5.0408    0.9827 H         1 <0>         0.0962
     58 H20         7.1775    5.2681    2.5517 H         1 <0>         0.1385
     59 H21         7.7200    3.8131    3.4217 H         1 <0>         0.1362
     60 H22         9.6811    3.8489    4.7292 H         1 <0>         0.1406
     61 H23        10.6091    4.2351    3.2598 H         1 <0>         0.1432
     62 H24        11.8340    4.8867    5.3359 H         1 <0>         0.1422
     63 H25        11.4586    6.2963    4.3145 H         1 <0>         0.0813
     64 H26         8.6891    7.2995    6.4860 H         1 <0>         0.1427
     65 H27         9.5717    7.7440    5.0046 H         1 <0>         0.0814
     66 H28         7.4244    6.6785    4.4245 H         1 <0>         0.1440
     67 H29         7.8539    5.2507    5.3974 H         1 <0>         0.1402
     68 H30         3.1296   -2.8935   -3.4101 H         1 <0>         0.1344
     69 H31         1.9400   -3.7392   -7.4246 H         1 <0>         0.1392
     70 H32         4.3820   -0.3311   -6.6071 H         1 <0>         0.1379
     71 H33         2.5417   -2.2003  -10.3868 H         1 <0>         0.1063
     72 H34         2.8585   -3.5690   -9.2938 H         1 <0>         0.0582
     73 H35         1.4007   -2.5720   -9.0723 H         1 <0>         0.0577
     74 H36         1.8166   -5.6777   -6.6549 H         1 <0>         0.0583
     75 H37         0.5935   -6.1456   -5.4494 H         1 <0>         0.1061
     76 H38         0.3590   -4.6805   -6.4327 H         1 <0>         0.0582
     77 H39         9.3309    6.2393    3.0600 H         1 <0>         0.4235
@<TRIPOS>BOND
     1    1    2 1
     2    1   39 1
     3    1   40 1
     4    1   41 1
     5    2    3 1
     6    2    4 1
     7    2    5 1
     8    3   42 1
     9    3   43 1
    10    3   44 1
    11    4   45 1
    12    4   46 1
    13    4   47 1
    14    5    6 am
    15    5   48 1
    16    6    7 2
    17    6    8 am
    18    8    9 1
    19    8   49 1
    20    9   18 ar
    21    9   10 ar
    22   10   11 ar
    23   10   29 1
    24   11   12 ar
    25   11   50 1
    26   12   17 ar
    27   12   13 ar
    28   13   14 ar
    29   13   51 1
    30   14   15 ar
    31   15   16 ar
    32   15   19 1
    33   16   17 ar
    34   16   52 1
    35   17   18 ar
    36   19   20 1
    37   19   53 1
    38   20   21 1
    39   20   54 1
    40   20   55 1
    41   21   22 1
    42   21   56 1
    43   21   57 1
    44   22   23 1
    45   22   58 1
    46   22   59 1
    47   23   28 1
    48   23   24 1
    49   23   77 1
    50   24   25 1
    51   24   60 1
    52   24   61 1
    53   25   26 1
    54   25   62 1
    55   25   63 1
    56   26   27 1
    57   27   28 1
    58   27   64 1
    59   27   65 1
    60   28   66 1
    61   28   67 1
    62   29   34 ar
    63   29   30 ar
    64   30   31 ar
    65   30   68 1
    66   31   32 ar
    67   31   37 1
    68   32   33 ar
    69   32   69 1
    70   33   34 ar
    71   33   35 1
    72   34   70 1
    73   35   36 1
    74   36   71 1
    75   36   72 1
    76   36   73 1
    77   37   38 1
    78   38   74 1
    79   38   75 1
    80   38   76 1
@<TRIPOS>MOLECULE
CHEMBL245745
   62    65     0     0     0
SMALL
USER_CHARGES

@<TRIPOS>ATOM
      1 C1         -0.0735    1.4781   -0.0346 C.3       1 <0>        -0.1210
      2 C2         -0.0081   -0.0273   -0.0142 C.ar      1 <0>        -0.0439
      3 C3         -0.0055   -0.7329   -1.2034 C.ar      1 <0>        -0.1156
      4 C4          0.0542   -2.1112   -1.1927 C.ar      1 <0>        -0.0755
      5 C5          0.1126   -2.7973    0.0219 C.ar      1 <0>        -0.1332
      6 C6          0.1103   -2.0843    1.2208 C.ar      1 <0>        -0.0482
      7 C7          0.0550   -0.7005    1.1984 C.ar      1 <0>         0.0855
      8 O1          0.0577   -0.0016    2.3639 O.3       1 <0>        -0.2333
      9 C8          1.2455    0.4604    2.8263 C.ar      1 <0>         0.3336
     10 C9          1.3082    1.0895    4.0759 C.ar      1 <0>        -0.1158
     11 C10         2.5406    1.5578    4.5335 C.ar      1 <0>        -0.0255
     12 C11         3.6535    1.3791    3.7274 C.ar      1 <0>        -0.2017
     13 C12         3.5126    0.7485    2.5060 C.ar      1 <0>         0.1449
     14 N1          2.3374    0.3092    2.0970 N.ar      1 <0>        -0.5240
     15 C13         0.0858    1.2555    4.8986 C.ar      1 <0>         0.0472
     16 C14        -1.0841    1.7917    4.3469 C.ar      1 <0>        -0.2062
     17 C15        -2.2001    1.9302    5.1428 C.ar      1 <0>         0.1523
     18 N2         -2.1795    1.5655    6.4117 N.ar      1 <0>        -0.5435
     19 C16        -1.0957    1.0538    6.9756 C.ar      1 <0>         0.4027
     20 C17         0.0696    0.8763    6.2409 C.ar      1 <0>        -0.2255
     21 N3         -1.1264    0.6857    8.3160 N.pl3     1 <0>        -0.7315
     22 C18         0.0679    0.1191    8.9476 C.3       1 <0>         0.0950
     23 C19         0.1762   -4.2742    0.0373 C.2       1 <0>         0.5624
     24 O2          0.2270   -4.8693    1.0961 O.2       1 <0>        -0.5103
     25 N4          0.1779   -4.9607   -1.1224 N.am      1 <0>        -0.6664
     26 C20         0.1149   -6.3577   -1.1081 C.ar      1 <0>         0.1493
     27 C21         0.6440   -7.0892   -2.1638 C.ar      1 <0>        -0.1546
     28 C22         0.5807   -8.4685   -2.1464 C.ar      1 <0>        -0.0955
     29 C23        -0.0092   -9.1217   -1.0795 C.ar      1 <0>        -0.1322
     30 C24        -0.5372   -8.3966   -0.0273 C.ar      1 <0>        -0.0542
     31 C25        -0.4716   -7.0169   -0.0357 C.ar      1 <0>        -0.1269
     32 C26        -1.1795   -9.1126    1.1328 C.3       1 <0>        -0.0584
     33 C27        -2.3596   -9.9453    0.6281 C.3       1 <0>        -0.1438
     34 C28        -0.1526  -10.0327    1.7959 C.3       1 <0>        -0.1439
     35 H1          0.9370    1.8853   -0.0684 H         1 <0>         0.0780
     36 H2         -0.6269    1.8059   -0.9146 H         1 <0>         0.0763
     37 H3         -0.5780    1.8321    0.8644 H         1 <0>         0.0722
     38 H4         -0.0506   -0.2034   -2.1436 H         1 <0>         0.1390
     39 H5          0.0554   -2.6592   -2.1233 H         1 <0>         0.1310
     40 H6          0.1550   -2.6094    2.1635 H         1 <0>         0.1418
     41 H7          2.6249    2.0480    5.4921 H         1 <0>         0.1455
     42 H8          4.6224    1.7298    4.0509 H         1 <0>         0.1440
     43 H9          4.3796    0.6092    1.8773 H         1 <0>         0.1636
     44 H10        -1.1112    2.0934    3.3102 H         1 <0>         0.1308
     45 H11        -3.1051    2.3434    4.7227 H         1 <0>         0.1577
     46 H12         0.9504    0.4549    6.7026 H         1 <0>         0.1312
     47 H13        -1.9386    0.8040    8.8330 H         1 <0>         0.4069
     48 H14         0.3531   -0.7965    8.4295 H         1 <0>         0.0556
     49 H15         0.8849    0.8383    8.8908 H         1 <0>         0.0554
     50 H16        -0.1459   -0.1062    9.9925 H         1 <0>         0.0802
     51 H17         0.2227   -4.4859   -1.9671 H         1 <0>         0.4107
     52 H18         1.1042   -6.5797   -2.9976 H         1 <0>         0.1244
     53 H19         0.9919   -9.0378   -2.9669 H         1 <0>         0.1265
     54 H20        -0.0578  -10.2006   -1.0684 H         1 <0>         0.1224
     55 H21        -0.8799   -6.4512    0.7887 H         1 <0>         0.1423
     56 H22        -1.5348   -8.3816    1.8591 H         1 <0>         0.0782
     57 H23        -2.0042  -10.6763   -0.0982 H         1 <0>         0.0574
     58 H24        -2.8241  -10.4631    1.4672 H         1 <0>         0.0589
     59 H25        -3.0912   -9.2898    0.1557 H         1 <0>         0.0555
     60 H26         0.2028  -10.7637    1.0696 H         1 <0>         0.0570
     61 H27         0.6882   -9.4395    2.1555 H         1 <0>         0.0564
     62 H28        -0.6171  -10.5506    2.6351 H         1 <0>         0.0588
@<TRIPOS>BOND
     1    1    2 1
     2    1   35 1
     3    1   36 1
     4    1   37 1
     5    2    7 ar
     6    2    3 ar
     7    3    4 ar
     8    3   38 1
     9    4    5 ar
    10    4   39 1
    11    5    6 ar
    12    5   23 1
    13    6    7 ar
    14    6   40 1
    15    7    8 1
    16    8    9 1
    17    9   14 ar
    18    9   10 ar
    19   10   11 ar
    20   10   15 1
    21   11   12 ar
    22   11   41 1
    23   12   13 ar
    24   12   42 1
    25   13   14 ar
    26   13   43 1
    27   15   20 ar
    28   15   16 ar
    29   16   17 ar
    30   16   44 1
    31   17   18 ar
    32   17   45 1
    33   18   19 ar
    34   19   20 ar
    35   19   21 1
    36   20   46 1
    37   21   22 1
    38   21   47 1
    39   22   48 1
    40   22   49 1
    41   22   50 1
    42   23   24 2
    43   23   25 am
    44   25   26 1
    45   25   51 1
    46   26   31 ar
    47   26   27 ar
    48   27   28 ar
    49   27   52 1
    50   28   29 ar
    51   28   53 1
    52   29   30 ar
    53   29   54 1
    54   30   31 ar
    55   30   32 1
    56   31   55 1
    57   32   33 1
    58   32   34 1
    59   32   56 1
    60   33   57 1
    61   33   58 1
    62   33   59 1
    63   34   60 1
    64   34   61 1
    65   34   62 1
@<TRIPOS>MOLECULE
CHEMBL245745__1
   63    66     0     0     0
SMALL
USER_CHARGES

@<TRIPOS>ATOM
      1 C1         -0.0735    1.4781   -0.0346 C.3       1 <0>        -0.1209
      2 C2         -0.0081   -0.0273   -0.0142 C.ar      1 <0>        -0.0428
      3 C3         -0.0055   -0.7329   -1.2034 C.ar      1 <0>        -0.1126
      4 C4          0.0542   -2.1112   -1.1927 C.ar      1 <0>        -0.0675
      5 C5          0.1126   -2.7973    0.0219 C.ar      1 <0>        -0.1286
      6 C6          0.1103   -2.0843    1.2208 C.ar      1 <0>        -0.0465
      7 C7          0.0550   -0.7005    1.1984 C.ar      1 <0>         0.0721
      8 O1          0.0577   -0.0016    2.3639 O.3       1 <0>        -0.2405
      9 C8          1.2455    0.4604    2.8263 C.ar      1 <0>         0.3523
     10 C9          1.3082    1.0895    4.0759 C.ar      1 <0>        -0.1714
     11 C10         2.5406    1.5578    4.5335 C.ar      1 <0>        -0.0067
     12 C11         3.6535    1.3791    3.7274 C.ar      1 <0>        -0.2000
     13 C12         3.5126    0.7485    2.5060 C.ar      1 <0>         0.1762
     14 N1          2.3374    0.3092    2.0970 N.ar      1 <0>        -0.5187
     15 C13         0.0858    1.2555    4.8986 C.ar      1 <0>         0.1388
     16 C14        -1.0841    1.7917    4.3469 C.ar      1 <0>        -0.1549
     17 C15        -2.2001    1.9302    5.1428 C.ar      1 <0>         0.1534
     18 N2         -2.1795    1.5655    6.4117 N.ar      1 <0>        -0.5076
     19 C16        -1.0957    1.0538    6.9756 C.ar      1 <0>         0.4477
     20 C17         0.0696    0.8763    6.2409 C.ar      1 <0>        -0.1976
     21 N3         -1.1264    0.6857    8.3160 N.pl3     1 <0>        -0.7043
     22 C18         0.0679    0.1191    8.9476 C.3       1 <0>         0.0726
     23 C19         0.1762   -4.2742    0.0373 C.2       1 <0>         0.5605
     24 O2          0.2270   -4.8693    1.0961 O.2       1 <0>        -0.5119
     25 N4          0.1779   -4.9607   -1.1224 N.am      1 <0>        -0.6633
     26 C20         0.1149   -6.3577   -1.1081 C.ar      1 <0>         0.1438
     27 C21         0.6440   -7.0892   -2.1638 C.ar      1 <0>        -0.1518
     28 C22         0.5807   -8.4685   -2.1464 C.ar      1 <0>        -0.0939
     29 C23        -0.0092   -9.1217   -1.0795 C.ar      1 <0>        -0.1286
     30 C24        -0.5372   -8.3966   -0.0273 C.ar      1 <0>        -0.0548
     31 C25        -0.4716   -7.0169   -0.0357 C.ar      1 <0>        -0.1264
     32 C26        -1.1795   -9.1126    1.1328 C.3       1 <0>        -0.0571
     33 C27        -2.3596   -9.9453    0.6281 C.3       1 <0>        -0.1450
     34 C28        -0.1526  -10.0327    1.7959 C.3       1 <0>        -0.1448
     35 H1          0.9370    1.8853   -0.0684 H         1 <0>         0.0798
     36 H2         -0.6269    1.8059   -0.9146 H         1 <0>         0.0804
     37 H3         -0.5780    1.8321    0.8644 H         1 <0>         0.0669
     38 H4         -0.0506   -0.2034   -2.1436 H         1 <0>         0.1430
     39 H5          0.0554   -2.6592   -2.1233 H         1 <0>         0.1354
     40 H6          0.1550   -2.6094    2.1635 H         1 <0>         0.1417
     41 H7          2.6249    2.0480    5.4921 H         1 <0>         0.1519
     42 H8          4.6224    1.7298    4.0509 H         1 <0>         0.1546
     43 H9          4.3796    0.6092    1.8773 H         1 <0>         0.1740
     44 H10        -1.1112    2.0934    3.3102 H         1 <0>         0.1781
     45 H11        -3.1051    2.3434    4.7227 H         1 <0>         0.2094
     46 H12         0.9504    0.4549    6.7026 H         1 <0>         0.1782
     47 H13        -1.9386    0.8040    8.8330 H         1 <0>         0.4217
     48 H14         0.3531   -0.7965    8.4295 H         1 <0>         0.0815
     49 H15         0.8849    0.8383    8.8908 H         1 <0>         0.0814
     50 H16        -0.1459   -0.1062    9.9925 H         1 <0>         0.1063
     51 H17         0.2227   -4.4859   -1.9671 H         1 <0>         0.4112
     52 H18         1.1042   -6.5797   -2.9976 H         1 <0>         0.1254
     53 H19         0.9919   -9.0378   -2.9669 H         1 <0>         0.1287
     54 H20        -0.0578  -10.2006   -1.0684 H         1 <0>         0.1243
     55 H21        -0.8799   -6.4512    0.7887 H         1 <0>         0.1406
     56 H22        -1.5348   -8.3816    1.8591 H         1 <0>         0.0764
     57 H23        -2.8241  -10.4631    1.4672 H         1 <0>         0.0597
     58 H24        -3.0912   -9.2898    0.1557 H         1 <0>         0.0553
     59 H25        -2.0042  -10.6763   -0.0982 H         1 <0>         0.0588
     60 H26         0.6882   -9.4395    2.1555 H         1 <0>         0.0558
     61 H27        -0.6171  -10.5506    2.6351 H         1 <0>         0.0595
     62 H28         0.2028  -10.7637    1.0696 H         1 <0>         0.0584
     63 H29        -2.9812    1.6757    6.9464 H         1 <0>         0.4421
@<TRIPOS>BOND
     1    1    2 1
     2    1   35 1
     3    1   36 1
     4    1   37 1
     5    2    7 ar
     6    2    3 ar
     7    3    4 ar
     8    3   38 1
     9    4    5 ar
    10    4   39 1
    11    5    6 ar
    12    5   23 1
    13    6    7 ar
    14    6   40 1
    15    7    8 1
    16    8    9 1
    17    9   14 ar
    18    9   10 ar
    19   10   11 ar
    20   10   15 1
    21   11   12 ar
    22   11   41 1
    23   12   13 ar
    24   12   42 1
    25   13   14 ar
    26   13   43 1
    27   15   20 ar
    28   15   16 ar
    29   16   17 ar
    30   16   44 1
    31   17   18 ar
    32   17   45 1
    33   18   19 ar
    34   18   63 1
    35   19   20 ar
    36   19   21 1
    37   20   46 1
    38   21   22 1
    39   21   47 1
    40   22   48 1
    41   22   49 1
    42   22   50 1
    43   23   24 2
    44   23   25 am
    45   25   26 1
    46   25   51 1
    47   26   31 ar
    48   26   27 ar
    49   27   28 ar
    50   27   52 1
    51   28   29 ar
    52   28   53 1
    53   29   30 ar
    54   29   54 1
    55   30   31 ar
    56   30   32 1
    57   31   55 1
    58   32   33 1
    59   32   34 1
    60   32   56 1
    61   33   57 1
    62   33   58 1
    63   33   59 1
    64   34   60 1
    65   34   61 1
    66   34   62 1
@<TRIPOS>MOLECULE
CHEMBL245744
   60    63     0     0     0
SMALL
USER_CHARGES

@<TRIPOS>ATOM
      1 C1         -0.0741    1.4770   -0.0375 C.3       1 <0>        -0.1210
      2 C2         -0.0053   -0.0283   -0.0157 C.ar      1 <0>        -0.0437
      3 C3          0.0000   -0.7350   -1.2043 C.ar      1 <0>        -0.1162
      4 C4          0.0623   -2.1132   -1.1923 C.ar      1 <0>        -0.0766
      5 C5          0.1207   -2.7981    0.0230 C.ar      1 <0>        -0.1343
      6 C6          0.1157   -2.0840    1.2213 C.ar      1 <0>        -0.0464
      7 C7          0.0581   -0.7003    1.1975 C.ar      1 <0>         0.0835
      8 O1          0.0582   -0.0003    2.3625 O.3       1 <0>        -0.2002
      9 C8          1.2441    0.4637    2.8259 C.ar      1 <0>         0.3669
     10 C9          1.3042    1.0945    4.0757 C.ar      1 <0>        -0.1257
     11 C10         2.5368    1.5650    4.5345 C.ar      1 <0>         0.0141
     12 C11         3.6501    1.3865    3.7302 C.ar      1 <0>        -0.2172
     13 C12         3.5113    0.7542    2.5088 C.ar      1 <0>         0.1681
     14 N1          2.3375    0.3135    2.0982 N.ar      1 <0>        -0.5334
     15 C13         0.0824    1.2599    4.8955 C.ar      1 <0>         0.4515
     16 N2         -1.0872    0.8027    4.4501 N.ar      1 <0>        -0.5683
     17 C14        -2.1776    0.9501    5.1814 C.ar      1 <0>         0.3845
     18 N3         -2.1134    1.5510    6.3567 N.ar      1 <0>        -0.6072
     19 C15        -0.9492    2.0106    6.8091 C.ar      1 <0>         0.5995
     20 N4          0.1513    1.8600    6.0801 N.ar      1 <0>        -0.6040
     21 N5         -0.8843    2.6383    8.0365 N.pl3     1 <0>        -0.6888
     22 C16        -2.0972    2.7990    8.8422 C.3       1 <0>         0.1019
     23 C17         0.1871   -4.2748    0.0398 C.2       1 <0>         0.5627
     24 O2          0.2378   -4.8689    1.0991 O.2       1 <0>        -0.5105
     25 N6          0.1913   -4.9623   -1.1194 N.am      1 <0>        -0.6669
     26 C18         0.1310   -6.3594   -1.1039 C.ar      1 <0>         0.1499
     27 C19         0.6627   -7.0908   -2.1584 C.ar      1 <0>        -0.1549
     28 C20         0.6020   -8.4702   -2.1398 C.ar      1 <0>        -0.0956
     29 C21         0.0121   -9.1237   -1.0730 C.ar      1 <0>        -0.1327
     30 C22        -0.5184   -8.3986   -0.0221 C.ar      1 <0>        -0.0543
     31 C23        -0.4554   -7.0188   -0.0316 C.ar      1 <0>        -0.1269
     32 C24        -1.1606   -9.1148    1.1380 C.3       1 <0>        -0.0584
     33 C25        -2.3386   -9.9502    0.6327 C.3       1 <0>        -0.1437
     34 C26        -0.1327  -10.0324    1.8031 C.3       1 <0>        -0.1439
     35 H1          0.9356    1.8863   -0.0707 H         1 <0>         0.0768
     36 H2         -0.6274    1.8027   -0.9183 H         1 <0>         0.0750
     37 H3         -0.5802    1.8306    0.8608 H         1 <0>         0.0731
     38 H4         -0.0451   -0.2064   -2.1450 H         1 <0>         0.1378
     39 H5          0.0656   -2.6620   -2.1224 H         1 <0>         0.1301
     40 H6          0.1607   -2.6082    2.1645 H         1 <0>         0.1418
     41 H7          2.6196    2.0563    5.4927 H         1 <0>         0.1563
     42 H8          4.6183    1.7385    4.0544 H         1 <0>         0.1478
     43 H9          4.3795    0.6150    1.8816 H         1 <0>         0.1671
     44 H10        -3.1242    0.5788    4.8175 H         1 <0>         0.2086
     45 H11        -0.0355    2.9730    8.3657 H         1 <0>         0.4182
     46 H12        -2.8284    3.3848    8.2852 H         1 <0>         0.0636
     47 H13        -2.5148    1.8182    9.0697 H         1 <0>         0.0636
     48 H14        -1.8510    3.3134    9.7710 H         1 <0>         0.0807
     49 H15         0.2362   -4.4882   -1.9644 H         1 <0>         0.4107
     50 H16         1.1228   -6.5812   -2.9920 H         1 <0>         0.1243
     51 H17         1.0152   -9.0395   -2.9593 H         1 <0>         0.1262
     52 H18        -0.0344  -10.2026   -1.0611 H         1 <0>         0.1222
     53 H19        -0.8658   -6.4532    0.7919 H         1 <0>         0.1425
     54 H20        -1.5182   -8.3839    1.8633 H         1 <0>         0.0783
     55 H21        -1.9810  -10.6811   -0.0926 H         1 <0>         0.0572
     56 H22        -2.8031  -10.4682    1.4718 H         1 <0>         0.0588
     57 H23        -3.0709   -9.2965    0.1589 H         1 <0>         0.0555
     58 H24         0.2249  -10.7633    1.0778 H         1 <0>         0.0569
     59 H25         0.7065   -9.4372    2.1631 H         1 <0>         0.0564
     60 H26        -0.5972  -10.5504    2.6421 H         1 <0>         0.0587
@<TRIPOS>BOND
     1    1    2 1
     2    1   35 1
     3    1   36 1
     4    1   37 1
     5    2    7 ar
     6    2    3 ar
     7    3    4 ar
     8    3   38 1
     9    4    5 ar
    10    4   39 1
    11    5    6 ar
    12    5   23 1
    13    6    7 ar
    14    6   40 1
    15    7    8 1
    16    8    9 1
    17    9   14 ar
    18    9   10 ar
    19   10   11 ar
    20   10   15 1
    21   11   12 ar
    22   11   41 1
    23   12   13 ar
    24   12   42 1
    25   13   14 ar
    26   13   43 1
    27   15   20 ar
    28   15   16 ar
    29   16   17 ar
    30   17   18 ar
    31   17   44 1
    32   18   19 ar
    33   19   20 ar
    34   19   21 1
    35   21   22 1
    36   21   45 1
    37   22   46 1
    38   22   47 1
    39   22   48 1
    40   23   24 2
    41   23   25 am
    42   25   26 1
    43   25   49 1
    44   26   31 ar
    45   26   27 ar
    46   27   28 ar
    47   27   50 1
    48   28   29 ar
    49   28   51 1
    50   29   30 ar
    51   29   52 1
    52   30   31 ar
    53   30   32 1
    54   31   53 1
    55   32   33 1
    56   32   34 1
    57   32   54 1
    58   33   55 1
    59   33   56 1
    60   33   57 1
    61   34   58 1
    62   34   59 1
    63   34   60 1
@<TRIPOS>MOLECULE
CHEMBL394693
   61    64     0     0     0
SMALL
USER_CHARGES

@<TRIPOS>ATOM
      1 C1          0.0042    1.3057    0.5061 C.3       1 <0>        -0.1120
      2 C2          0.0253   -0.1862    0.2943 C.ar      1 <0>        -0.0877
      3 C3         -0.0184   -0.7021   -0.9871 C.ar      1 <0>        -0.0905
      4 C4          0.0003   -2.0688   -1.1853 C.ar      1 <0>        -0.1357
      5 C5          0.0635   -2.9289   -0.0958 C.ar      1 <0>         0.1511
      6 C6          0.1079   -2.4129    1.1916 C.ar      1 <0>        -0.1112
      7 C7          0.0942   -1.0403    1.3861 C.ar      1 <0>         0.1078
      8 O1          0.1432   -0.5315    2.6453 O.3       1 <0>        -0.2031
      9 C8          1.3202   -0.0177    3.0787 C.ar      1 <0>         0.3617
     10 C9          1.4422    0.4207    4.4037 C.ar      1 <0>        -0.1310
     11 C10         2.6636    0.9463    4.8299 C.ar      1 <0>        -0.0129
     12 C11         3.7057    1.0114    3.9195 C.ar      1 <0>        -0.2125
     13 C12         3.5089    0.5588    2.6285 C.ar      1 <0>         0.1595
     14 N1          2.3469    0.0614    2.2499 N.ar      1 <0>        -0.5280
     15 C13         0.2949    0.3287    5.3365 C.ar      1 <0>         0.2696
     16 C14         0.4162    0.7720    6.6572 C.ar      1 <0>        -0.2861
     17 C15        -0.6817    0.6659    7.4910 C.ar      1 <0>         0.1945
     18 N2         -1.8068    0.1520    7.0187 N.ar      1 <0>        -0.5724
     19 C16        -1.8940   -0.2604    5.7624 C.ar      1 <0>         0.5673
     20 N3         -0.8695   -0.1723    4.9288 N.ar      1 <0>        -0.5430
     21 N4         -3.0888   -0.7916    5.3085 N.pl3     1 <0>        -0.7032
     22 C17        -4.2365   -0.8922    6.2135 C.3       1 <0>         0.1074
     23 N5          0.0819   -4.3128   -0.2964 N.am      1 <0>        -0.6693
     24 C18         0.7951   -5.1040    0.5293 C.2       1 <0>         0.5594
     25 O2          1.5051   -4.6087    1.3827 O.2       1 <0>        -0.5109
     26 C19         0.7139   -6.5740    0.3973 C.ar      1 <0>        -0.1347
     27 C20        -0.0961   -7.1460   -0.5855 C.ar      1 <0>        -0.0906
     28 C21        -0.1670   -8.5184   -0.7037 C.ar      1 <0>        -0.1224
     29 C22         0.5625   -9.3279    0.1493 C.ar      1 <0>        -0.0852
     30 C23         1.3667   -8.7677    1.1255 C.ar      1 <0>        -0.0814
     31 C24         1.4511   -7.3962    1.2508 C.ar      1 <0>        -0.0547
     32 C25         2.1568   -9.6571    2.0505 C.3       1 <0>        -0.0595
     33 C26         1.1993  -10.5593    2.8318 C.3       1 <0>        -0.1456
     34 C27         3.1168  -10.5213    1.2305 C.3       1 <0>        -0.1455
     35 H1          1.0255    1.6867    0.5090 H         1 <0>         0.0725
     36 H2         -0.5579    1.7790   -0.2989 H         1 <0>         0.0692
     37 H3         -0.4701    1.5304    1.4614 H         1 <0>         0.0648
     38 H4         -0.0675   -0.0351   -1.8352 H         1 <0>         0.1332
     39 H5         -0.0347   -2.4693   -2.1877 H         1 <0>         0.1301
     40 H6          0.1570   -3.0792    2.0401 H         1 <0>         0.1372
     41 H7          2.7926    1.2939    5.8442 H         1 <0>         0.1494
     42 H8          4.6636    1.4126    4.2160 H         1 <0>         0.1455
     43 H9          4.3212    0.6095    1.9187 H         1 <0>         0.1639
     44 H10         1.3458    1.1871    7.0176 H         1 <0>         0.1438
     45 H11        -0.6220    0.9985    8.5168 H         1 <0>         0.1689
     46 H12        -3.1663   -1.0972    4.3912 H         1 <0>         0.4153
     47 H13        -3.9745   -1.5219    7.0638 H         1 <0>         0.0585
     48 H14        -4.5081    0.1022    6.5678 H         1 <0>         0.0588
     49 H15        -5.0806   -1.3318    5.6823 H         1 <0>         0.0749
     50 H16        -0.4186   -4.7033   -1.0299 H         1 <0>         0.4112
     51 H17        -0.6662   -6.5152   -1.2516 H         1 <0>         0.1253
     52 H18        -0.7935   -8.9622   -1.4633 H         1 <0>         0.1314
     53 H19         0.5035  -10.4020    0.0525 H         1 <0>         0.1285
     54 H20         2.0830   -6.9599    2.0102 H         1 <0>         0.1358
     55 H21         2.7264   -9.0422    2.7473 H         1 <0>         0.0810
     56 H22         0.6297  -11.1742    2.1351 H         1 <0>         0.0574
     57 H23         1.7708  -11.2026    3.5008 H         1 <0>         0.0612
     58 H24         0.5154   -9.9436    3.4160 H         1 <0>         0.0568
     59 H25         2.5472  -11.1362    0.5338 H         1 <0>         0.0574
     60 H26         3.7989   -9.8786    0.6739 H         1 <0>         0.0570
     61 H27         3.6883  -11.1646    1.8995 H         1 <0>         0.0612
@<TRIPOS>BOND
     1    1    2 1
     2    1   35 1
     3    1   36 1
     4    1   37 1
     5    2    7 ar
     6    2    3 ar
     7    3    4 ar
     8    3   38 1
     9    4    5 ar
    10    4   39 1
    11    5    6 ar
    12    5   23 1
    13    6    7 ar
    14    6   40 1
    15    7    8 1
    16    8    9 1
    17    9   14 ar
    18    9   10 ar
    19   10   11 ar
    20   10   15 1
    21   11   12 ar
    22   11   41 1
    23   12   13 ar
    24   12   42 1
    25   13   14 ar
    26   13   43 1
    27   15   20 ar
    28   15   16 ar
    29   16   17 ar
    30   16   44 1
    31   17   18 ar
    32   17   45 1
    33   18   19 ar
    34   19   20 ar
    35   19   21 1
    36   21   22 1
    37   21   46 1
    38   22   47 1
    39   22   48 1
    40   22   49 1
    41   23   24 am
    42   23   50 1
    43   24   25 2
    44   24   26 1
    45   26   31 ar
    46   26   27 ar
    47   27   28 ar
    48   27   51 1
    49   28   29 ar
    50   28   52 1
    51   29   30 ar
    52   29   53 1
    53   30   31 ar
    54   30   32 1
    55   31   54 1
    56   32   33 1
    57   32   34 1
    58   32   55 1
    59   33   56 1
    60   33   57 1
    61   33   58 1
    62   34   59 1
    63   34   60 1
    64   34   61 1
@<TRIPOS>MOLECULE
CHEMBL246151
   59    62     0     0     0
SMALL
USER_CHARGES

@<TRIPOS>ATOM
      1 C1         -1.4971    2.8204   -0.3426 C.3       1 <0>        -0.1459
      2 C2         -0.9605    1.4323   -0.6979 C.3       1 <0>        -0.0592
      3 C3          0.2661    1.1239    0.1630 C.3       1 <0>        -0.1456
      4 C4         -2.0277    0.4000   -0.4399 C.ar      1 <0>        -0.0817
      5 C5         -2.5475    0.2478    0.8336 C.ar      1 <0>        -0.0832
      6 C6         -3.5270   -0.6978    1.0791 C.ar      1 <0>        -0.1217
      7 C7         -3.9922   -1.4958    0.0542 C.ar      1 <0>        -0.0888
      8 C8         -3.4726   -1.3471   -1.2326 C.ar      1 <0>        -0.1355
      9 C9         -2.4883   -0.3871   -1.4747 C.ar      1 <0>        -0.0531
     10 C10        -3.9659   -2.1989   -2.3354 C.2       1 <0>         0.5638
     11 O1         -3.5115   -2.0672   -3.4552 O.2       1 <0>        -0.5108
     12 N1         -4.9195   -3.1216   -2.0993 N.am      1 <0>        -0.6661
     13 C11        -5.4532   -3.8628   -3.1590 C.ar      1 <0>         0.1706
     14 C12        -4.6462   -4.2281   -4.2274 C.ar      1 <0>        -0.1011
     15 C13        -5.1783   -4.9630   -5.2753 C.ar      1 <0>         0.1186
     16 C14        -6.5163   -5.3320   -5.2545 C.ar      1 <0>        -0.1188
     17 C15        -7.3191   -4.9678   -4.1903 C.ar      1 <0>        -0.0765
     18 C16        -6.7911   -4.2394   -3.1406 C.ar      1 <0>        -0.0623
     19 Cl1        -7.8008   -3.7898   -1.8019 Cl        1 <0>        -0.0580
     20 O2         -4.3904   -5.3217   -6.3230 O.3       1 <0>        -0.2337
     21 C17        -3.5034   -6.3299   -6.1364 C.ar      1 <0>         0.3341
     22 C18        -2.7434   -6.7961   -7.2163 C.ar      1 <0>        -0.1144
     23 C19        -1.8356   -7.8344   -7.0029 C.ar      1 <0>        -0.0253
     24 C20        -1.7256   -8.3608   -5.7258 C.ar      1 <0>        -0.2017
     25 C21        -2.5099   -7.8479   -4.7104 C.ar      1 <0>         0.1453
     26 N2         -3.3579   -6.8622   -4.9354 N.ar      1 <0>        -0.5248
     27 C22        -2.9008   -6.1973   -8.5636 C.ar      1 <0>         0.0469
     28 C23        -4.1695   -6.0335   -9.1332 C.ar      1 <0>        -0.2056
     29 C24        -4.2756   -5.4726  -10.3870 C.ar      1 <0>         0.1522
     30 N3         -3.2020   -5.0905  -11.0538 N.ar      1 <0>        -0.5435
     31 C25        -1.9826   -5.2260  -10.5546 C.ar      1 <0>         0.4023
     32 C26        -1.7894   -5.7769   -9.2942 C.ar      1 <0>        -0.2250
     33 N4         -0.8846   -4.8078  -11.2980 N.pl3     1 <0>        -0.7316
     34 C27         0.4675   -4.9540  -10.7533 C.3       1 <0>         0.0952
     35 H1         -0.7252    3.5670   -0.5292 H         1 <0>         0.0613
     36 H2         -2.3710    3.0400   -0.9559 H         1 <0>         0.0572
     37 H3         -1.7774    2.8429    0.7105 H         1 <0>         0.0575
     38 H4         -0.6802    1.4097   -1.7510 H         1 <0>         0.0813
     39 H5          0.6483    0.1350   -0.0901 H         1 <0>         0.0569
     40 H6          1.0380    1.8706   -0.0236 H         1 <0>         0.0613
     41 H7         -0.0142    1.1465    1.2162 H         1 <0>         0.0575
     42 H8         -2.1865    0.8696    1.6394 H         1 <0>         0.1292
     43 H9         -3.9282   -0.8118    2.0753 H         1 <0>         0.1321
     44 H10        -4.7565   -2.2340    0.2473 H         1 <0>         0.1246
     45 H11        -2.0849   -0.2643   -2.4690 H         1 <0>         0.1367
     46 H12        -5.2358   -3.2718   -1.1947 H         1 <0>         0.4143
     47 H13        -3.6054   -3.9400   -4.2424 H         1 <0>         0.1532
     48 H14        -6.9306   -5.9042   -6.0714 H         1 <0>         0.1423
     49 H15        -8.3597   -5.2562   -4.1767 H         1 <0>         0.1478
     50 H16        -1.2338   -8.2184   -7.8133 H         1 <0>         0.1459
     51 H17        -1.0332   -9.1652   -5.5260 H         1 <0>         0.1442
     52 H18        -2.4248   -8.2582   -3.7150 H         1 <0>         0.1636
     53 H19        -5.0539   -6.3435   -8.5963 H         1 <0>         0.1314
     54 H20        -5.2515   -5.3439  -10.8313 H         1 <0>         0.1581
     55 H21        -0.7942   -5.8818   -8.8881 H         1 <0>         0.1311
     56 H22        -1.0139   -4.4192  -12.1773 H         1 <0>         0.4068
     57 H23         1.1923   -4.5741  -11.4733 H         1 <0>         0.0800
     58 H24         0.5480   -4.3894   -9.8244 H         1 <0>         0.0554
     59 H25         0.6682   -6.0072  -10.5569 H         1 <0>         0.0553
@<TRIPOS>BOND
     1    1    2 1
     2    1   35 1
     3    1   36 1
     4    1   37 1
     5    2    3 1
     6    2    4 1
     7    2   38 1
     8    3   39 1
     9    3   40 1
    10    3   41 1
    11    4    9 ar
    12    4    5 ar
    13    5    6 ar
    14    5   42 1
    15    6    7 ar
    16    6   43 1
    17    7    8 ar
    18    7   44 1
    19    8    9 ar
    20    8   10 1
    21    9   45 1
    22   10   11 2
    23   10   12 am
    24   12   13 1
    25   12   46 1
    26   13   18 ar
    27   13   14 ar
    28   14   15 ar
    29   14   47 1
    30   15   16 ar
    31   15   20 1
    32   16   17 ar
    33   16   48 1
    34   17   18 ar
    35   17   49 1
    36   18   19 1
    37   20   21 1
    38   21   26 ar
    39   21   22 ar
    40   22   23 ar
    41   22   27 1
    42   23   24 ar
    43   23   50 1
    44   24   25 ar
    45   24   51 1
    46   25   26 ar
    47   25   52 1
    48   27   32 ar
    49   27   28 ar
    50   28   29 ar
    51   28   53 1
    52   29   30 ar
    53   29   54 1
    54   30   31 ar
    55   31   32 ar
    56   31   33 1
    57   32   55 1
    58   33   34 1
    59   33   56 1
    60   34   57 1
    61   34   58 1
    62   34   59 1
@<TRIPOS>MOLECULE
CHEMBL246151__1
   60    63     0     0     0
SMALL
USER_CHARGES

@<TRIPOS>ATOM
      1 C1          0.3820    2.8359    1.4628 C.3       1 <0>        -0.1471
      2 C2         -0.1589    1.4328    1.1806 C.3       1 <0>        -0.0586
      3 C3         -0.0187    1.1227   -0.3111 C.3       1 <0>        -0.1465
      4 C4          0.6237    0.4227    1.9794 C.ar      1 <0>        -0.0809
      5 C5          1.9898    0.3040    1.7934 C.ar      1 <0>        -0.0795
      6 C6          2.7156   -0.6210    2.5223 C.ar      1 <0>        -0.1199
      7 C7          2.0807   -1.4320    3.4404 C.ar      1 <0>        -0.0880
      8 C8          0.7032   -1.3172    3.6332 C.ar      1 <0>        -0.1413
      9 C9         -0.0224   -0.3777    2.8984 C.ar      1 <0>        -0.0528
     10 C10         0.0163   -2.1831    4.6148 C.2       1 <0>         0.5696
     11 O1         -1.1836   -2.0809    4.7806 O.2       1 <0>        -0.5172
     12 N1          0.7204   -3.0860    5.3258 N.am      1 <0>        -0.6674
     13 C11         0.0882   -3.8398    6.3204 C.ar      1 <0>         0.1748
     14 C12        -1.2309   -4.2389    6.1569 C.ar      1 <0>        -0.0992
     15 C13        -1.8538   -4.9862    7.1442 C.ar      1 <0>         0.1040
     16 C14        -1.1580   -5.3338    8.2939 C.ar      1 <0>        -0.1174
     17 C15         0.1554   -4.9360    8.4558 C.ar      1 <0>        -0.0749
     18 C16         0.7822   -4.1951    7.4712 C.ar      1 <0>        -0.0574
     19 Cl1         2.4345   -3.7031    7.6748 Cl        1 <0>        -0.0467
     20 O2         -3.1457   -5.3780    6.9869 O.3       1 <0>        -0.2410
     21 C17        -3.4022   -6.3959    6.1290 C.ar      1 <0>         0.3535
     22 C18        -4.7052   -6.8955    6.0123 C.ar      1 <0>        -0.1704
     23 C19        -4.9480   -7.9433    5.1230 C.ar      1 <0>        -0.0066
     24 C20        -3.8841   -8.4457    4.3911 C.ar      1 <0>        -0.2002
     25 C21        -2.6258   -7.9005    4.5609 C.ar      1 <0>         0.1767
     26 N2         -2.4216   -6.9064    5.4044 N.ar      1 <0>        -0.5197
     27 C22        -5.8081   -6.3213    6.8201 C.ar      1 <0>         0.1389
     28 C23        -5.6714   -6.1493    8.2030 C.ar      1 <0>        -0.1539
     29 C24        -6.7180   -5.6119    8.9198 C.ar      1 <0>         0.1531
     30 N3         -7.8415   -5.2600    8.3220 N.ar      1 <0>        -0.5074
     31 C25        -8.0152   -5.4044    7.0169 C.ar      1 <0>         0.4475
     32 C26        -7.0066   -5.9330    6.2214 C.ar      1 <0>        -0.1972
     33 N4         -9.2180   -5.0183    6.4362 N.pl3     1 <0>        -0.7047
     34 C27        -9.4184   -5.1747    4.9934 C.3       1 <0>         0.0729
     35 H1          1.4333    2.8839    1.1790 H         1 <0>         0.0587
     36 H2         -0.1841    3.5665    0.8850 H         1 <0>         0.0626
     37 H3          0.2821    3.0569    2.5255 H         1 <0>         0.0570
     38 H4         -1.2102    1.3848    1.4644 H         1 <0>         0.0802
     39 H5          1.0326    1.1706   -0.5949 H         1 <0>         0.0587
     40 H6         -0.4041    0.1231   -0.5121 H         1 <0>         0.0563
     41 H7         -0.5848    1.8533   -0.8889 H         1 <0>         0.0625
     42 H8          2.4915    0.9362    1.0758 H         1 <0>         0.1313
     43 H9          3.7815   -0.7088    2.3721 H         1 <0>         0.1341
     44 H10         2.6484   -2.1543    4.0083 H         1 <0>         0.1246
     45 H11        -1.0879   -0.2811    3.0458 H         1 <0>         0.1354
     46 H12         1.6654   -3.2131    5.1480 H         1 <0>         0.4171
     47 H13        -1.7713   -3.9674    5.2620 H         1 <0>         0.1541
     48 H14        -1.6439   -5.9157    9.0630 H         1 <0>         0.1417
     49 H15         0.6945   -5.2078    9.3513 H         1 <0>         0.1512
     50 H16        -5.9408   -8.3528    5.0084 H         1 <0>         0.1521
     51 H17        -4.0369   -9.2566    3.6944 H         1 <0>         0.1547
     52 H18        -1.7962   -8.2920    3.9910 H         1 <0>         0.1740
     53 H19        -4.7569   -6.4346    8.7016 H         1 <0>         0.1789
     54 H20        -6.6182   -5.4770    9.9867 H         1 <0>         0.2097
     55 H21        -7.1497   -6.0453    5.1568 H         1 <0>         0.1779
     56 H22        -9.9245   -4.6454    6.9864 H         1 <0>         0.4216
     57 H23        -8.6686   -4.5930    4.4573 H         1 <0>         0.0813
     58 H24        -9.3223   -6.2267    4.7252 H         1 <0>         0.0812
     59 H25       -10.4136   -4.8206    4.7244 H         1 <0>         0.1060
     60 H26        -8.5606   -4.8850    8.8542 H         1 <0>         0.4420
@<TRIPOS>BOND
     1    1    2 1
     2    1   35 1
     3    1   36 1
     4    1   37 1
     5    2    3 1
     6    2    4 1
     7    2   38 1
     8    3   39 1
     9    3   40 1
    10    3   41 1
    11    4    9 ar
    12    4    5 ar
    13    5    6 ar
    14    5   42 1
    15    6    7 ar
    16    6   43 1
    17    7    8 ar
    18    7   44 1
    19    8    9 ar
    20    8   10 1
    21    9   45 1
    22   10   11 2
    23   10   12 am
    24   12   13 1
    25   12   46 1
    26   13   18 ar
    27   13   14 ar
    28   14   15 ar
    29   14   47 1
    30   15   16 ar
    31   15   20 1
    32   16   17 ar
    33   16   48 1
    34   17   18 ar
    35   17   49 1
    36   18   19 1
    37   20   21 1
    38   21   26 ar
    39   21   22 ar
    40   22   23 ar
    41   22   27 1
    42   23   24 ar
    43   23   50 1
    44   24   25 ar
    45   24   51 1
    46   25   26 ar
    47   25   52 1
    48   27   32 ar
    49   27   28 ar
    50   28   29 ar
    51   28   53 1
    52   29   30 ar
    53   29   54 1
    54   30   31 ar
    55   30   60 1
    56   31   32 ar
    57   31   33 1
    58   32   55 1
    59   33   34 1
    60   33   56 1
    61   34   57 1
    62   34   58 1
    63   34   59 1
@<TRIPOS>MOLECULE
CHEMBL445062
   50    53     0     0     0
SMALL
USER_CHARGES

@<TRIPOS>ATOM
      1 C1         -0.0178    1.4648    0.0101 C.3       1 <0>        -0.0475
      2 N1          0.0021   -0.0041    0.0020 N.4       1 <0>        -0.3860
      3 C2          0.7126   -0.4907    1.1921 C.3       1 <0>        -0.0546
      4 C3         -1.3761   -0.5125    0.0124 C.3       1 <0>        -0.0073
      5 C4         -1.3584   -2.0365   -0.1216 C.3       1 <0>        -0.1521
      6 C5         -2.7938   -2.5661   -0.1108 C.3       1 <0>         0.0617
      7 O1         -2.7773   -3.9895   -0.2360 O.3       1 <0>        -0.3121
      8 C6         -3.9800   -4.6222   -0.2435 C.ar      1 <0>         0.1304
      9 C7         -5.1513   -3.8847   -0.1380 C.ar      1 <0>        -0.2038
     10 C8         -6.3734   -4.5240   -0.1452 C.ar      1 <0>        -0.0560
     11 C9         -6.4316   -5.9118   -0.2586 C.ar      1 <0>        -0.0669
     12 C10        -5.2540   -6.6495   -0.3643 C.ar      1 <0>        -0.0575
     13 C11        -4.0350   -6.0042   -0.3622 C.ar      1 <0>        -0.1414
     14 C12        -7.7450   -6.6027   -0.2662 C.2       1 <0>        -0.1548
     15 C13        -8.5773   -6.5686    0.8744 C.2       1 <0>         0.1932
     16 N2         -9.7363   -7.1813    0.8617 N.2       1 <0>        -0.4476
     17 C14       -10.1529   -7.8460   -0.2219 C.2       1 <0>         0.2623
     18 C15       -11.3188   -8.5699   -0.4943 C.2       1 <0>        -0.1660
     19 C16       -11.2125   -9.0527   -1.8010 C.2       1 <0>         0.1101
     20 N3        -10.0668   -8.6604   -2.3072 N.2       1 <0>        -0.3030
     21 N4         -9.3772   -7.9050   -1.3523 N.pl3     1 <0>        -0.3121
     22 C17        -8.1663   -7.2749   -1.3787 C.2       1 <0>         0.1828
     23 C18       -12.4576   -8.7850    0.4331 C.2       1 <0>        -0.0416
     24 C19       -13.7646   -8.5428    0.0224 C.2       1 <0>        -0.1475
     25 C20       -14.7762   -8.7510    0.8963 C.2       1 <0>        -0.1710
     26 S1        -13.9081   -9.3052    2.3539 S.3       1 <0>         0.0406
     27 C21       -12.2461   -9.2306    1.7071 C.2       1 <0>        -0.1515
     28 H1          1.0047    1.8421    0.0024 H         1 <0>         0.1266
     29 H2         -0.5450    1.8259   -0.8730 H         1 <0>         0.1245
     30 H3         -0.5280    1.8163    0.9069 H         1 <0>         0.1231
     31 H4          0.2024   -0.1392    2.0889 H         1 <0>         0.1238
     32 H5          0.7273   -1.5806    1.1861 H         1 <0>         0.1255
     33 H6          1.7352   -0.1134    1.1844 H         1 <0>         0.1267
     34 H7         -1.8584   -0.2358    0.9500 H         1 <0>         0.1341
     35 H8         -1.9290   -0.0808   -0.8218 H         1 <0>         0.1351
     36 H9         -0.8762   -2.3132   -1.0592 H         1 <0>         0.0997
     37 H10        -0.8055   -2.4683    0.7126 H         1 <0>         0.1001
     38 H11        -3.2761   -2.2894    0.8267 H         1 <0>         0.0740
     39 H12        -3.3467   -2.1344   -0.9450 H         1 <0>         0.0738
     40 H13        -5.1056   -2.8092   -0.0498 H         1 <0>         0.1301
     41 H14        -7.2844   -3.9497   -0.0628 H         1 <0>         0.1328
     42 H15        -5.2960   -7.7251   -0.4523 H         1 <0>         0.1368
     43 H16        -3.1223   -6.5749   -0.4489 H         1 <0>         0.1377
     44 H17        -8.2582   -6.0371    1.7587 H         1 <0>         0.1804
     45 H18       -11.9522   -9.6518   -2.3113 H         1 <0>         0.2035
     46 H19        -7.5489   -7.3105   -2.2641 H         1 <0>         0.1805
     47 H20       -13.9687   -8.1935   -0.9790 H         1 <0>         0.1337
     48 H21       -15.8376   -8.6161    0.7495 H         1 <0>         0.1873
     49 H22       -11.3145   -9.4738    2.1964 H         1 <0>         0.1810
     50 H23         0.4744   -0.3295   -0.8281 H         1 <0>         0.4288
@<TRIPOS>BOND
     1    1    2 1
     2    1   28 1
     3    1   29 1
     4    1   30 1
     5    2    3 1
     6    2    4 1
     7    2   50 1
     8    3   31 1
     9    3   32 1
    10    3   33 1
    11    4    5 1
    12    4   34 1
    13    4   35 1
    14    5    6 1
    15    5   36 1
    16    5   37 1
    17    6    7 1
    18    6   38 1
    19    6   39 1
    20    7    8 1
    21    8   13 ar
    22    8    9 ar
    23    9   10 ar
    24    9   40 1
    25   10   11 ar
    26   10   41 1
    27   11   12 ar
    28   11   14 1
    29   12   13 ar
    30   12   42 1
    31   13   43 1
    32   14   22 2
    33   14   15 1
    34   15   16 2
    35   15   44 1
    36   16   17 1
    37   17   21 1
    38   17   18 2
    39   18   19 1
    40   18   23 1
    41   19   20 2
    42   19   45 1
    43   20   21 1
    44   21   22 1
    45   22   46 1
    46   23   27 2
    47   23   24 1
    48   24   25 2
    49   24   47 1
    50   25   26 1
    51   25   48 1
    52   26   27 1
    53   27   49 1
@<TRIPOS>MOLECULE
CHEMBL24137
   55    58     0     0     0
SMALL
USER_CHARGES

@<TRIPOS>ATOM
      1 C1         -0.2874    1.4785   -0.1530 C.3       1 <0>         0.0208
      2 O1         -0.5676    0.0892   -0.3365 O.3       1 <0>        -0.2986
      3 C2         -0.0342   -0.5082   -1.4354 C.ar      1 <0>         0.1146
      4 C3          0.7339    0.2234   -2.2962 C.ar      1 <0>        -0.1503
      5 C4          1.2835   -0.3907   -3.4278 C.ar      1 <0>        -0.1793
      6 C5          1.0408   -1.7649   -3.6740 C.ar      1 <0>         0.2028
      7 C6          0.2505   -2.4955   -2.7785 C.ar      1 <0>        -0.1842
      8 C7         -0.2740   -1.8694   -1.6694 C.ar      1 <0>         0.1695
      9 O2         -1.0366   -2.5772   -0.7959 O.3       1 <0>        -0.2924
     10 C8         -1.2446   -3.9602   -1.0892 C.3       1 <0>         0.0548
     11 C9         -2.1206   -4.5859   -0.0021 C.3       1 <0>        -0.1157
     12 C10        -2.3433   -6.0667   -0.3161 C.3       1 <0>         0.0586
     13 N1         -3.1844   -6.6675    0.7277 N.3       1 <0>        -0.5363
     14 C11        -2.4835   -6.6924    2.0197 C.3       1 <0>         0.0124
     15 C12        -3.4151   -7.2698    3.0886 C.3       1 <0>         0.0625
     16 O3         -3.8493   -8.5707    2.6831 O.3       1 <0>        -0.3853
     17 C13        -4.5365   -8.5833    1.4289 C.3       1 <0>         0.0627
     18 C14        -3.6162   -8.0192    0.3432 C.3       1 <0>         0.0173
     19 N2          1.5799   -2.3294   -4.7660 N.ar      1 <0>        -0.5372
     20 C15         2.3166   -1.6193   -5.5869 C.ar      1 <0>         0.3402
     21 N3          2.5705   -0.3342   -5.3976 N.ar      1 <0>        -0.5805
     22 C16         2.0864    0.3213   -4.3506 C.ar      1 <0>         0.4636
     23 N4          2.3586    1.6617   -4.1662 N.pl3     1 <0>        -0.6319
     24 C17         3.0386    2.3804   -5.1563 C.ar      1 <0>         0.1335
     25 C18         3.0990    1.8904   -6.4538 C.ar      1 <0>        -0.0986
     26 C19         3.7702    2.6018   -7.4294 C.ar      1 <0>        -0.0926
     27 C20         4.3827    3.8023   -7.1153 C.ar      1 <0>        -0.0315
     28 C21         4.3254    4.2944   -5.8232 C.ar      1 <0>        -0.1216
     29 C22         3.6501    3.5897   -4.8435 C.ar      1 <0>         0.0724
     30 F1          3.5893    4.0726   -3.5832 F         1 <0>        -0.1330
     31 Cl1         5.2251    4.6926   -8.3447 Cl        1 <0>        -0.0554
     32 H1          0.7898    1.6242   -0.0719 H         1 <0>         0.0579
     33 H2         -0.6670    2.0414   -1.0057 H         1 <0>         0.0580
     34 H3         -0.7712    1.8294    0.7585 H         1 <0>         0.1081
     35 H4          0.9160    1.2706   -2.1047 H         1 <0>         0.1396
     36 H5          0.0573   -3.5436   -2.9537 H         1 <0>         0.1562
     37 H6         -1.7402   -4.0562   -2.0552 H         1 <0>         0.0710
     38 H7         -0.2834   -4.4733   -1.1214 H         1 <0>         0.0684
     39 H8         -1.6250   -4.4899    0.9640 H         1 <0>         0.0766
     40 H9         -3.0817   -4.0728    0.0301 H         1 <0>         0.0865
     41 H10        -2.8390   -6.1627   -1.2821 H         1 <0>         0.0817
     42 H11        -1.3822   -6.5798   -0.3483 H         1 <0>         0.0405
     43 H12        -1.5926   -7.3151    1.9385 H         1 <0>         0.0447
     44 H13        -2.1955   -5.6784    2.2971 H         1 <0>         0.0904
     45 H14        -2.8809   -7.3432    4.0359 H         1 <0>         0.0994
     46 H15        -4.2806   -6.6179    3.2077 H         1 <0>         0.0611
     47 H16        -4.8133   -9.6067    1.1758 H         1 <0>         0.0998
     48 H17        -5.4346   -7.9696    1.4997 H         1 <0>         0.0611
     49 H18        -4.1551   -7.9737   -0.6032 H         1 <0>         0.0883
     50 H19        -2.7434   -8.6632    0.2352 H         1 <0>         0.0448
     51 H20         2.7349   -2.1051   -6.4560 H         1 <0>         0.2011
     52 H21         2.0787    2.1057   -3.3505 H         1 <0>         0.4237
     53 H22         2.6218    0.9535   -6.7003 H         1 <0>         0.1833
     54 H23         3.8174    2.2202   -8.4386 H         1 <0>         0.1456
     55 H24         4.8049    5.2312   -5.5807 H         1 <0>         0.1505
@<TRIPOS>BOND
     1    1    2 1
     2    1   32 1
     3    1   33 1
     4    1   34 1
     5    2    3 1
     6    3    8 ar
     7    3    4 ar
     8    4    5 ar
     9    4   35 1
    10    5   22 ar
    11    5    6 ar
    12    6    7 ar
    13    6   19 ar
    14    7    8 ar
    15    7   36 1
    16    8    9 1
    17    9   10 1
    18   10   11 1
    19   10   37 1
    20   10   38 1
    21   11   12 1
    22   11   39 1
    23   11   40 1
    24   12   13 1
    25   12   41 1
    26   12   42 1
    27   13   18 1
    28   13   14 1
    29   14   15 1
    30   14   43 1
    31   14   44 1
    32   15   16 1
    33   15   45 1
    34   15   46 1
    35   16   17 1
    36   17   18 1
    37   17   47 1
    38   17   48 1
    39   18   49 1
    40   18   50 1
    41   19   20 ar
    42   20   21 ar
    43   20   51 1
    44   21   22 ar
    45   22   23 1
    46   23   24 1
    47   23   52 1
    48   24   29 ar
    49   24   25 ar
    50   25   26 ar
    51   25   53 1
    52   26   27 ar
    53   26   54 1
    54   27   28 ar
    55   27   31 1
    56   28   29 ar
    57   28   55 1
    58   29   30 1
@<TRIPOS>MOLECULE
CHEMBL24137__1
   56    59     0     0     0
SMALL
USER_CHARGES

@<TRIPOS>ATOM
      1 C1          0.2579    1.4858   -0.1415 C.3       1 <0>         0.0196
      2 O1          0.5784    0.1047   -0.3201 O.3       1 <0>        -0.3028
      3 C2          1.2729   -0.5021    0.6792 C.ar      1 <0>         0.1102
      4 C3          1.6231    0.2130    1.7892 C.ar      1 <0>        -0.1408
      5 C4          2.3381   -0.4107    2.8185 C.ar      1 <0>        -0.1779
      6 C5          2.6940   -1.7775    2.7040 C.ar      1 <0>         0.2013
      7 C6          2.3248   -2.4912    1.5574 C.ar      1 <0>        -0.1785
      8 C7          1.6166   -1.8560    0.5613 C.ar      1 <0>         0.1609
      9 O2          1.2522   -2.5475   -0.5498 O.3       1 <0>        -0.2940
     10 C8          1.6317   -3.9238   -0.6109 C.3       1 <0>         0.0566
     11 C9          1.1377   -4.5312   -1.9254 C.3       1 <0>        -0.1503
     12 C10         1.5441   -6.0048   -1.9908 C.3       1 <0>        -0.0059
     13 N1          1.0698   -6.5879   -3.2529 N.4       1 <0>        -0.3843
     14 C11        -0.3995   -6.5897   -3.2703 C.3       1 <0>        -0.0502
     15 C12        -0.8911   -7.1976   -4.5863 C.3       1 <0>         0.0362
     16 O3         -0.3625   -8.5197   -4.7216 O.3       1 <0>        -0.3562
     17 C13         1.0664   -8.5728   -4.6865 C.3       1 <0>         0.0356
     18 C14         1.5616   -7.9676   -3.3706 C.3       1 <0>        -0.0434
     19 N2          3.3792   -2.3516    3.7054 N.ar      1 <0>        -0.5429
     20 C15         3.7109   -1.6573    4.7678 C.ar      1 <0>         0.3489
     21 N3          3.4000   -0.3797    4.9187 N.ar      1 <0>        -0.5773
     22 C16         2.7249    0.2841    3.9893 C.ar      1 <0>         0.4678
     23 N4          2.4084    1.6166    4.1595 N.pl3     1 <0>        -0.6286
     24 C17         2.9148    2.3215    5.2576 C.ar      1 <0>         0.1254
     25 C18         4.0160    1.8347    5.9489 C.ar      1 <0>        -0.0966
     26 C19         4.5143    2.5323    7.0320 C.ar      1 <0>        -0.0931
     27 C20         3.9176    3.7160    7.4293 C.ar      1 <0>        -0.0274
     28 C21         2.8196    4.2048    6.7436 C.ar      1 <0>        -0.1215
     29 C22         2.3195    3.5139    5.6549 C.ar      1 <0>         0.0765
     30 F1          1.2509    3.9938    4.9818 F         1 <0>        -0.1324
     31 Cl1         4.5475    4.5892    8.7911 Cl        1 <0>        -0.0497
     32 H1          1.1773    2.0610   -0.0326 H         1 <0>         0.0602
     33 H2         -0.2952    1.8456   -1.0091 H         1 <0>         0.1100
     34 H3         -0.3529    1.6042    0.7535 H         1 <0>         0.0603
     35 H4          1.3501    1.2546    1.8721 H         1 <0>         0.1423
     36 H5          2.5894   -3.5335    1.4568 H         1 <0>         0.1537
     37 H6          2.7175   -4.0040   -0.5590 H         1 <0>         0.0791
     38 H7          1.1873   -4.4608    0.2271 H         1 <0>         0.0787
     39 H8          0.0519   -4.4510   -1.9773 H         1 <0>         0.1006
     40 H9          1.5822   -3.9942   -2.7634 H         1 <0>         0.1014
     41 H10         2.6299   -6.0849   -1.9389 H         1 <0>         0.1385
     42 H11         1.0996   -6.5418   -1.1528 H         1 <0>         0.1363
     43 H12        -0.7723   -7.1820   -2.4346 H         1 <0>         0.1408
     44 H13        -0.7654   -5.5667   -3.1831 H         1 <0>         0.1446
     45 H14        -1.9803   -7.2395   -4.5834 H         1 <0>         0.1427
     46 H15        -0.5521   -6.5829   -5.4202 H         1 <0>         0.0819
     47 H16         1.3939   -9.6101   -4.7560 H         1 <0>         0.1431
     48 H17         1.4724   -8.0053   -5.5238 H         1 <0>         0.0819
     49 H18         2.6516   -7.9673   -3.3580 H         1 <0>         0.1442
     50 H19         1.1881   -8.5593   -2.5349 H         1 <0>         0.1404
     51 H20         4.2620   -2.1505    5.5549 H         1 <0>         0.2037
     52 H21         1.8349    2.0646    3.5182 H         1 <0>         0.4240
     53 H22         4.4825    0.9108    5.6402 H         1 <0>         0.1821
     54 H23         5.3708    2.1532    7.5698 H         1 <0>         0.1471
     55 H24         2.3554    5.1285    7.0562 H         1 <0>         0.1526
     56 H25         1.4149   -6.0405   -4.0271 H         1 <0>         0.4246
@<TRIPOS>BOND
     1    1    2 1
     2    1   32 1
     3    1   33 1
     4    1   34 1
     5    2    3 1
     6    3    8 ar
     7    3    4 ar
     8    4    5 ar
     9    4   35 1
    10    5   22 ar
    11    5    6 ar
    12    6    7 ar
    13    6   19 ar
    14    7    8 ar
    15    7   36 1
    16    8    9 1
    17    9   10 1
    18   10   11 1
    19   10   37 1
    20   10   38 1
    21   11   12 1
    22   11   39 1
    23   11   40 1
    24   12   13 1
    25   12   41 1
    26   12   42 1
    27   13   18 1
    28   13   14 1
    29   13   56 1
    30   14   15 1
    31   14   43 1
    32   14   44 1
    33   15   16 1
    34   15   45 1
    35   15   46 1
    36   16   17 1
    37   17   18 1
    38   17   47 1
    39   17   48 1
    40   18   49 1
    41   18   50 1
    42   19   20 ar
    43   20   21 ar
    44   20   51 1
    45   21   22 ar
    46   22   23 1
    47   23   24 1
    48   23   52 1
    49   24   29 ar
    50   24   25 ar
    51   25   26 ar
    52   25   53 1
    53   26   27 ar
    54   26   54 1
    55   27   28 ar
    56   27   31 1
    57   28   29 ar
    58   28   55 1
    59   29   30 1
@<TRIPOS>MOLECULE
CHEMBL567475
   59    63     0     0     0
SMALL
USER_CHARGES

@<TRIPOS>ATOM
      1 C1         -2.2371    0.9374   -2.1223 C.3       1 <0>        -0.1721
      2 C2         -1.3951    1.0593   -0.8506 C.3       1 <0>         0.0979
      3 N1         -1.5716   -0.1422   -0.0311 N.pl3     1 <0>        -0.4545
      4 C3         -2.5208   -0.3303    0.9333 C.2       1 <0>        -0.0140
      5 C4         -2.3227   -1.5789    1.4377 C.2       1 <0>         0.0619
      6 N2         -1.2741   -2.1225    0.7841 N.2       1 <0>        -0.4698
      7 C5         -0.8289   -1.2694   -0.0947 C.2       1 <0>         0.1973
      8 C6         -3.1129   -2.2232    2.5084 C.2       1 <0>        -0.0115
      9 C7         -2.9553   -3.4583    3.0504 C.2       1 <0>        -0.1349
     10 C8         -3.8194   -3.8931    4.0728 C.ar      1 <0>         0.1650
     11 C9         -4.8129   -2.9667    4.4580 C.ar      1 <0>        -0.2094
     12 S1         -4.5042   -1.5667    3.4129 S.3       1 <0>         0.1018
     13 C10        -5.7326   -3.2531    5.4496 C.ar      1 <0>         0.2116
     14 C11        -5.6559   -4.4985    6.0713 C.ar      1 <0>        -0.2393
     15 C12        -4.6672   -5.3778    5.6643 C.ar      1 <0>         0.1591
     16 N3         -3.8087   -5.0802    4.7217 N.ar      1 <0>        -0.4779
     17 O1         -6.6807   -2.3496    5.8070 O.3       1 <0>        -0.2371
     18 C13        -7.6178   -2.7328    6.7150 C.ar      1 <0>         0.0187
     19 C14        -8.8122   -3.2914    6.2851 C.ar      1 <0>        -0.0650
     20 C15        -9.7644   -3.6809    7.2065 C.ar      1 <0>        -0.1473
     21 C16        -9.5270   -3.5131    8.5643 C.ar      1 <0>         0.1924
     22 C17        -8.3317   -2.9541    8.9960 C.ar      1 <0>        -0.1591
     23 C18        -7.3761   -2.5699    8.0735 C.ar      1 <0>         0.1268
     24 F1         -6.2103   -2.0309    8.4926 F         1 <0>        -0.1200
     25 N4        -10.4935   -3.9075    9.4985 N.am      1 <0>        -0.6718
     26 C19       -10.1226   -4.2513   10.7477 C.2       1 <0>         0.5116
     27 O2         -8.9458   -4.3254   11.0322 O.2       1 <0>        -0.4620
     28 C20       -11.1699   -4.5436   11.7912 C.3       1 <0>        -0.1628
     29 C21       -10.4973   -4.9005   13.0917 C.2       1 <0>         0.5111
     30 O3         -9.2867   -4.9159   13.1642 O.2       1 <0>        -0.4694
     31 N5        -11.2411   -5.2025   14.1743 N.am      1 <0>        -0.6751
     32 C22       -10.6212   -5.4223   15.4105 C.ar      1 <0>         0.1358
     33 C23       -11.1356   -6.3676   16.2879 C.ar      1 <0>        -0.1149
     34 C24       -10.5228   -6.5829   17.5067 C.ar      1 <0>        -0.1338
     35 C25        -9.3962   -5.8565   17.8542 C.ar      1 <0>         0.0857
     36 C26        -8.8816   -4.9133   16.9806 C.ar      1 <0>        -0.1324
     37 C27        -9.4879   -4.6993   15.7583 C.ar      1 <0>        -0.0905
     38 F2         -8.7987   -6.0679   19.0472 F         1 <0>        -0.1382
     39 H1         -2.1058    1.8313   -2.7320 H         1 <0>         0.0803
     40 H2         -1.9172    0.0619   -2.6873 H         1 <0>         0.0658
     41 H3         -3.2882    0.8321   -1.8534 H         1 <0>         0.0645
     42 H4         -0.3441    1.1645   -1.1195 H         1 <0>         0.0998
     43 H5         -1.7150    1.9347   -0.2856 H         1 <0>         0.0959
     44 H6         -3.2805    0.3748    1.2367 H         1 <0>         0.1811
     45 H7          0.0019   -1.4356   -0.7645 H         1 <0>         0.2124
     46 H8         -2.1675   -4.1069    2.6967 H         1 <0>         0.1544
     47 H9         -6.3509   -4.7706    6.8520 H         1 <0>         0.1472
     48 H10        -4.6017   -6.3444    6.1415 H         1 <0>         0.1665
     49 H11        -8.9979   -3.4216    5.2292 H         1 <0>         0.1493
     50 H12       -10.6942   -4.1158    6.8708 H         1 <0>         0.1453
     51 H13        -8.1467   -2.8231   10.0519 H         1 <0>         0.1652
     52 H14       -11.4298   -3.9331    9.2462 H         1 <0>         0.4174
     53 H15       -11.7951   -3.6625   11.9352 H         1 <0>         0.1344
     54 H16       -11.7886   -5.3781   11.4611 H         1 <0>         0.1325
     55 H17       -12.2059   -5.2675   14.0972 H         1 <0>         0.4125
     56 H18       -12.0146   -6.9339   16.0175 H         1 <0>         0.1370
     57 H19       -10.9226   -7.3181   18.1894 H         1 <0>         0.1409
     58 H20        -8.0031   -4.3475   17.2537 H         1 <0>         0.1404
     59 H21        -9.0837   -3.9668   15.0754 H         1 <0>         0.1430
@<TRIPOS>BOND
     1    1    2 1
     2    1   39 1
     3    1   40 1
     4    1   41 1
     5    2    3 1
     6    2   42 1
     7    2   43 1
     8    3    7 1
     9    3    4 1
    10    4    5 2
    11    4   44 1
    12    5    6 1
    13    5    8 1
    14    6    7 2
    15    7   45 1
    16    8   12 1
    17    8    9 2
    18    9   10 1
    19    9   46 1
    20   10   16 ar
    21   10   11 ar
    22   11   12 1
    23   11   13 ar
    24   13   14 ar
    25   13   17 1
    26   14   15 ar
    27   14   47 1
    28   15   16 ar
    29   15   48 1
    30   17   18 1
    31   18   23 ar
    32   18   19 ar
    33   19   20 ar
    34   19   49 1
    35   20   21 ar
    36   20   50 1
    37   21   22 ar
    38   21   25 1
    39   22   23 ar
    40   22   51 1
    41   23   24 1
    42   25   26 am
    43   25   52 1
    44   26   27 2
    45   26   28 1
    46   28   29 1
    47   28   53 1
    48   28   54 1
    49   29   30 2
    50   29   31 am
    51   31   32 1
    52   31   55 1
    53   32   37 ar
    54   32   33 ar
    55   33   34 ar
    56   33   56 1
    57   34   35 ar
    58   34   57 1
    59   35   36 ar
    60   35   38 1
    61   36   37 ar
    62   36   58 1
    63   37   59 1
@<TRIPOS>MOLECULE
CHEMBL567475__1
   60    64     0     0     0
SMALL
USER_CHARGES

@<TRIPOS>ATOM
      1 C1         -0.7418    0.9295    3.0000 C.3       1 <0>        -0.1810
      2 C2         -0.0646    1.0636    1.6346 C.3       1 <0>         0.0872
      3 N1          0.7633   -0.1183    1.3819 N.pl3     1 <0>        -0.4024
      4 C3          2.0773   -0.2723    1.7225 C.2       1 <0>         0.0490
      5 C4          2.4464   -1.5135    1.3031 C.2       1 <0>         0.1239
      6 N2          1.3701   -2.0863    0.7236 N.pl3     1 <0>        -0.4724
      7 C5          0.3653   -1.2580    0.7744 C.cat     1 <0>         0.3042
      8 C6          3.7844   -2.1238    1.4544 C.2       1 <0>        -0.1204
      9 C7          4.2060   -3.3502    1.0513 C.2       1 <0>        -0.0826
     10 C8          5.5339   -3.7509    1.2899 C.ar      1 <0>         0.1380
     11 C9          6.3407   -2.8016    1.9546 C.ar      1 <0>        -0.1941
     12 S1          5.2464   -1.4278    2.2048 S.3       1 <0>         0.1699
     13 C10         7.6660   -3.0539    2.2563 C.ar      1 <0>         0.2099
     14 C11         8.1973   -4.2876    1.8834 C.ar      1 <0>        -0.2129
     15 C12         7.3728   -5.1901    1.2337 C.ar      1 <0>         0.1671
     16 N3          6.1202   -4.9249    0.9605 N.ar      1 <0>        -0.4689
     17 O1          8.4266   -2.1287    2.8956 O.3       1 <0>        -0.2326
     18 C13         9.6907   -2.4791    3.2545 C.ar      1 <0>         0.0040
     19 C14         9.9293   -3.0275    4.5058 C.ar      1 <0>        -0.0616
     20 C15        11.2127   -3.3835    4.8711 C.ar      1 <0>        -0.1475
     21 C16        12.2655   -3.1924    3.9861 C.ar      1 <0>         0.2027
     22 C17        12.0279   -2.6435    2.7331 C.ar      1 <0>        -0.1594
     23 C18        10.7420   -2.2928    2.3654 C.ar      1 <0>         0.1300
     24 F1         10.5088   -1.7638    1.1444 F         1 <0>        -0.1203
     25 N4         13.5672   -3.5529    4.3575 N.am      1 <0>        -0.6728
     26 C19        14.4721   -3.8774    3.4129 C.2       1 <0>         0.5137
     27 O2         14.1322   -3.9641    2.2518 O.2       1 <0>        -0.4611
     28 C20        15.9062   -4.1325    3.7993 C.3       1 <0>        -0.1636
     29 C21        16.7051   -4.4736    2.5679 C.2       1 <0>         0.5116
     30 O3         16.1633   -4.5065    1.4832 O.2       1 <0>        -0.4722
     31 N5         18.0217   -4.7423    2.6718 N.am      1 <0>        -0.6736
     32 C22        18.7878   -4.9470    1.5176 C.ar      1 <0>         0.1335
     33 C23        19.8282   -5.8665    1.5278 C.ar      1 <0>        -0.1135
     34 C24        20.5826   -6.0669    0.3884 C.ar      1 <0>        -0.1333
     35 C25        20.3023   -5.3513   -0.7634 C.ar      1 <0>         0.0877
     36 C26        19.2651   -4.4339   -0.7757 C.ar      1 <0>        -0.1331
     37 C27        18.5044   -4.2350    0.3598 C.ar      1 <0>        -0.0905
     38 F2         21.0420   -5.5481   -1.8767 F         1 <0>        -0.1371
     39 H1          0.0189    0.8460    3.7762 H         1 <0>         0.0747
     40 H2         -1.3578    1.8089    3.1881 H         1 <0>         0.1022
     41 H3         -1.3689    0.0380    3.0085 H         1 <0>         0.0731
     42 H4         -0.8253    1.1471    0.8584 H         1 <0>         0.1254
     43 H5          0.5625    1.9551    1.6261 H         1 <0>         0.1266
     44 H6          2.7020    0.4505    2.2263 H         1 <0>         0.2268
     45 H7         -0.6256   -1.4505    0.3904 H         1 <0>         0.2670
     46 H8          3.5224   -4.0179    0.5481 H         1 <0>         0.1496
     47 H9          9.2273   -4.5332    2.0960 H         1 <0>         0.1571
     48 H10         7.7775   -6.1479    0.9418 H         1 <0>         0.1763
     49 H11         9.1111   -3.1758    5.1950 H         1 <0>         0.1496
     50 H12        11.3976   -3.8105    5.8458 H         1 <0>         0.1483
     51 H13        12.8464   -2.4943    2.0446 H         1 <0>         0.1681
     52 H14        13.8173   -3.5690    5.2946 H         1 <0>         0.4195
     53 H15        16.3213   -3.2390    4.2656 H         1 <0>         0.1357
     54 H16        15.9506   -4.9637    4.5030 H         1 <0>         0.1338
     55 H17        18.4387   -4.7939    3.5461 H         1 <0>         0.4131
     56 H18        20.0476   -6.4243    2.4262 H         1 <0>         0.1375
     57 H19        21.3920   -6.7820    0.3960 H         1 <0>         0.1420
     58 H20        19.0483   -3.8765   -1.6750 H         1 <0>         0.1405
     59 H21        17.6927   -3.5226    0.3485 H         1 <0>         0.1422
     60 H22         1.3474   -2.9744    0.3342 H         1 <0>         0.4655
@<TRIPOS>BOND
     1    1    2 1
     2    1   39 1
     3    1   40 1
     4    1   41 1
     5    2    3 1
     6    2   42 1
     7    2   43 1
     8    3    7 1
     9    3    4 1
    10    4    5 2
    11    4   44 1
    12    5    6 1
    13    5    8 1
    14    6    7 2
    15    6   60 1
    16    7   45 1
    17    8   12 1
    18    8    9 2
    19    9   10 1
    20    9   46 1
    21   10   16 ar
    22   10   11 ar
    23   11   12 1
    24   11   13 ar
    25   13   14 ar
    26   13   17 1
    27   14   15 ar
    28   14   47 1
    29   15   16 ar
    30   15   48 1
    31   17   18 1
    32   18   23 ar
    33   18   19 ar
    34   19   20 ar
    35   19   49 1
    36   20   21 ar
    37   20   50 1
    38   21   22 ar
    39   21   25 1
    40   22   23 ar
    41   22   51 1
    42   23   24 1
    43   25   26 am
    44   25   52 1
    45   26   27 2
    46   26   28 1
    47   28   29 1
    48   28   53 1
    49   28   54 1
    50   29   30 2
    51   29   31 am
    52   31   32 1
    53   31   55 1
    54   32   37 ar
    55   32   33 ar
    56   33   34 ar
    57   33   56 1
    58   34   35 ar
    59   34   57 1
    60   35   36 ar
    61   35   38 1
    62   36   37 ar
    63   36   58 1
    64   37   59 1
@<TRIPOS>MOLECULE
CHEMBL272250
   54    58     0     0     0
SMALL
USER_CHARGES

@<TRIPOS>ATOM
      1 C1          2.1899   -0.3444   -2.1238 C.3       1 <0>         0.0073
      2 O1          1.2849   -0.9583   -1.2039 O.3       1 <0>        -0.2541
      3 C2          1.8229   -1.5176   -0.0911 C.ar      1 <0>         0.2712
      4 C3          3.1722   -1.4682    0.1037 C.ar      1 <0>        -0.2683
      5 C4          3.7395   -2.0445    1.2521 C.ar      1 <0>         0.2303
      6 C5          2.8987   -2.6756    2.2038 C.ar      1 <0>        -0.1475
      7 C6          1.5168   -2.7196    1.9943 C.ar      1 <0>         0.0278
      8 C7          0.9801   -2.1389    0.8545 C.ar      1 <0>        -0.1464
      9 C8         -0.4769   -2.1756    0.6278 C.2       1 <0>         0.5582
     10 O2         -0.9494   -1.6711   -0.3725 O.2       1 <0>        -0.4968
     11 N1         -1.2844   -2.7684    1.5295 N.am      1 <0>        -0.8455
     12 C9          3.4825   -3.2525    3.3567 C.ar      1 <0>         0.3036
     13 C10         4.8571   -3.1705    3.4978 C.ar      1 <0>        -0.2754
     14 C11         5.6125   -2.5354    2.5211 C.ar      1 <0>         0.2452
     15 N2          5.0612   -2.0030    1.4552 N.ar      1 <0>        -0.4963
     16 O3          2.7195   -3.8657    4.2937 O.3       1 <0>        -0.2094
     17 C12         3.3510   -4.4837    5.3260 C.ar      1 <0>         0.0393
     18 C13         3.8933   -3.7171    6.3617 C.ar      1 <0>        -0.1372
     19 C14         4.5315   -4.3089    7.4087 C.ar      1 <0>        -0.0812
     20 C15         4.6483   -5.7053    7.4533 C.ar      1 <0>        -0.0017
     21 C16         4.0999   -6.4861    6.4065 C.ar      1 <0>        -0.0536
     22 C17         3.4431   -5.8467    5.3417 C.ar      1 <0>        -0.0760
     23 C18         4.2165   -7.8864    6.4521 C.ar      1 <0>        -0.0683
     24 C19         4.8531   -8.4861    7.4972 C.ar      1 <0>        -0.1148
     25 C20         5.3972   -7.7372    8.5330 C.ar      1 <0>        -0.0534
     26 C21         5.3059   -6.3530    8.5288 C.ar      1 <0>        -0.1253
     27 C22         5.8862   -5.5643    9.6315 C.2       1 <0>         0.5671
     28 O4          5.7060   -4.3627    9.6800 O.2       1 <0>        -0.5291
     29 N3          6.6162   -6.1752   10.5856 N.am      1 <0>        -0.6918
     30 C23         7.1927   -5.3917   11.6810 C.3       1 <0>         0.0715
     31 C24         8.6377   -5.6948   12.0821 C.3       1 <0>        -0.1889
     32 C25         7.4853   -6.1212   12.9936 C.3       1 <0>        -0.1849
     33 H1          2.9013   -1.0874   -2.4842 H         1 <0>         0.0699
     34 H2          1.6310    0.0623   -2.9667 H         1 <0>         0.1229
     35 H3          2.7276    0.4602   -1.6223 H         1 <0>         0.0700
     36 H4          3.8051   -0.9856   -0.6262 H         1 <0>         0.1704
     37 H5          0.8720   -3.1990    2.7160 H         1 <0>         0.1715
     38 H6         -0.9075   -3.1708    2.3275 H         1 <0>         0.3998
     39 H7         -2.2426   -2.7925    1.3804 H         1 <0>         0.4174
     40 H8          5.3399   -3.5984    4.3640 H         1 <0>         0.1880
     41 H9          6.6842   -2.4775    2.6418 H         1 <0>         0.2147
     42 H10         3.8053   -2.6412    6.3307 H         1 <0>         0.1387
     43 H11         4.9465   -3.7048    8.2018 H         1 <0>         0.1848
     44 H12         3.0166   -6.4292    4.5385 H         1 <0>         0.1471
     45 H13         3.8005   -8.4880    5.6575 H         1 <0>         0.1414
     46 H14         4.9358   -9.5626    7.5208 H         1 <0>         0.1425
     47 H15         5.8965   -8.2376    9.3495 H         1 <0>         0.1361
     48 H16         6.7599   -7.1338   10.5469 H         1 <0>         0.4031
     49 H17         6.8591   -4.3559   11.7444 H         1 <0>         0.1424
     50 H18         9.1595   -6.4771   11.5309 H         1 <0>         0.0987
     51 H19         9.2552   -4.8583   12.4094 H         1 <0>         0.1069
     52 H20         7.3446   -5.5653   13.9206 H         1 <0>         0.1088
     53 H21         7.2489   -7.1842   13.0422 H         1 <0>         0.0998
     54 H22         5.6268   -1.5688    0.7976 H         1 <0>         0.4493
@<TRIPOS>BOND
     1    1    2 1
     2    1   33 1
     3    1   34 1
     4    1   35 1
     5    2    3 1
     6    3    8 ar
     7    3    4 ar
     8    4    5 ar
     9    4   36 1
    10    5   15 ar
    11    5    6 ar
    12    6    7 ar
    13    6   12 ar
    14    7    8 ar
    15    7   37 1
    16    8    9 1
    17    9   10 2
    18    9   11 am
    19   11   38 1
    20   11   39 1
    21   12   13 ar
    22   12   16 1
    23   13   14 ar
    24   13   40 1
    25   14   15 ar
    26   14   41 1
    27   15   54 1
    28   16   17 1
    29   17   22 ar
    30   17   18 ar
    31   18   19 ar
    32   18   42 1
    33   19   20 ar
    34   19   43 1
    35   20   26 ar
    36   20   21 ar
    37   21   22 ar
    38   21   23 ar
    39   22   44 1
    40   23   24 ar
    41   23   45 1
    42   24   25 ar
    43   24   46 1
    44   25   26 ar
    45   25   47 1
    46   26   27 1
    47   27   28 2
    48   27   29 am
    49   29   30 1
    50   29   48 1
    51   30   32 1
    52   30   31 1
    53   30   49 1
    54   31   32 1
    55   31   50 1
    56   31   51 1
    57   32   52 1
    58   32   53 1
@<TRIPOS>MOLECULE
CHEMBL272250__1
   53    57     0     0     0
SMALL
USER_CHARGES

@<TRIPOS>ATOM
      1 C1         -2.9233   -0.4209   -0.8287 C.3       1 <0>         0.0172
      2 O1         -1.6592   -1.0021   -0.5027 O.3       1 <0>        -0.2775
      3 C2         -0.9504   -1.5474   -1.5231 C.ar      1 <0>         0.2085
      4 C3         -1.4573   -1.5151   -2.7892 C.ar      1 <0>        -0.2204
      5 C4         -0.7321   -2.0771   -3.8526 C.ar      1 <0>         0.2191
      6 C5          0.5280   -2.6759   -3.5980 C.ar      1 <0>        -0.1592
      7 C6          1.0382   -2.7025   -2.2964 C.ar      1 <0>         0.0031
      8 C7          0.3051   -2.1364   -1.2637 C.ar      1 <0>        -0.1655
      9 C8          0.8378   -2.1549    0.1115 C.2       1 <0>         0.5642
     10 O2          0.1951   -1.6632    1.0191 O.2       1 <0>        -0.5141
     11 N1          2.0369   -2.7169    0.3622 N.am      1 <0>        -0.8540
     12 C9          1.2489   -3.2386   -4.6781 C.ar      1 <0>         0.2055
     13 C10         0.6821   -3.1752   -5.9393 C.ar      1 <0>        -0.2818
     14 C11        -0.5570   -2.5716   -6.1074 C.ar      1 <0>         0.1908
     15 N2         -1.2177   -2.0521   -5.0989 N.ar      1 <0>        -0.5072
     16 O3          2.4568   -3.8210   -4.4836 O.3       1 <0>        -0.2461
     17 C12         3.0506   -4.4279   -5.5444 C.ar      1 <0>         0.0818
     18 C13         3.6571   -3.6494   -6.5346 C.ar      1 <0>        -0.1288
     19 C14         4.2595   -4.2300   -7.6086 C.ar      1 <0>        -0.0937
     20 C15         4.2748   -5.6269   -7.7272 C.ar      1 <0>        -0.0092
     21 C16         3.6621   -6.4198   -6.7262 C.ar      1 <0>        -0.0490
     22 C17         3.0524   -5.7917   -5.6272 C.ar      1 <0>        -0.1006
     23 C18         3.6785   -7.8205   -6.8451 C.ar      1 <0>        -0.0678
     24 C19         4.2803   -8.4090   -7.9168 C.ar      1 <0>        -0.1242
     25 C20         4.8864   -7.6482   -8.9084 C.ar      1 <0>        -0.0648
     26 C21         4.8937   -6.2631   -8.8321 C.ar      1 <0>        -0.1251
     27 C22         5.5386   -5.4616   -9.8887 C.2       1 <0>         0.5681
     28 O4          5.6405   -4.2566   -9.7611 O.2       1 <0>        -0.5269
     29 N3          6.0152   -6.0647  -10.9958 N.am      1 <0>        -0.6958
     30 C23         6.6559   -5.2685  -12.0455 C.3       1 <0>         0.0757
     31 C24         6.2886   -5.5859  -13.4964 C.3       1 <0>        -0.1907
     32 C25         7.6645   -5.9761  -12.9526 C.3       1 <0>        -0.1871
     33 H1         -2.7779    0.3851   -1.5480 H         1 <0>         0.0607
     34 H2         -3.5721   -1.1819   -1.2621 H         1 <0>         0.0606
     35 H3         -3.3840   -0.0225    0.0753 H         1 <0>         0.1065
     36 H4         -2.4177   -1.0571   -2.9740 H         1 <0>         0.1519
     37 H5          1.9973   -3.1572   -2.0971 H         1 <0>         0.1470
     38 H6          2.5495   -3.1092   -0.3618 H         1 <0>         0.3988
     39 H7          2.3872   -2.7291    1.2666 H         1 <0>         0.4075
     40 H8          1.2016   -3.5931   -6.7890 H         1 <0>         0.1452
     41 H9         -0.9895   -2.5280   -7.0961 H         1 <0>         0.1657
     42 H10         3.6473   -2.5730   -6.4465 H         1 <0>         0.1354
     43 H11         4.7237   -3.6167   -8.3667 H         1 <0>         0.1786
     44 H12         2.5847   -6.3834   -4.8542 H         1 <0>         0.1417
     45 H13         3.2135   -8.4314   -6.0854 H         1 <0>         0.1372
     46 H14         4.2865   -9.4861   -7.9964 H         1 <0>         0.1364
     47 H15         5.3563   -8.1399   -9.7474 H         1 <0>         0.1301
     48 H16         5.9340   -7.0259  -11.0976 H         1 <0>         0.4020
     49 H17         6.8515   -4.2266  -11.7919 H         1 <0>         0.1416
     50 H18         5.5703   -6.3872  -13.6700 H         1 <0>         0.0981
     51 H19         6.2424   -4.7528  -14.1977 H         1 <0>         0.1054
     52 H20         8.5234   -5.3997  -13.2962 H         1 <0>         0.1066
     53 H21         7.8513   -7.0341  -12.7685 H         1 <0>         0.0984
@<TRIPOS>BOND
     1    1    2 1
     2    1   33 1
     3    1   34 1
     4    1   35 1
     5    2    3 1
     6    3    8 ar
     7    3    4 ar
     8    4    5 ar
     9    4   36 1
    10    5   15 ar
    11    5    6 ar
    12    6    7 ar
    13    6   12 ar
    14    7    8 ar
    15    7   37 1
    16    8    9 1
    17    9   10 2
    18    9   11 am
    19   11   38 1
    20   11   39 1
    21   12   13 ar
    22   12   16 1
    23   13   14 ar
    24   13   40 1
    25   14   15 ar
    26   14   41 1
    27   16   17 1
    28   17   22 ar
    29   17   18 ar
    30   18   19 ar
    31   18   42 1
    32   19   20 ar
    33   19   43 1
    34   20   26 ar
    35   20   21 ar
    36   21   22 ar
    37   21   23 ar
    38   22   44 1
    39   23   24 ar
    40   23   45 1
    41   24   25 ar
    42   24   46 1
    43   25   26 ar
    44   25   47 1
    45   26   27 1
    46   27   28 2
    47   27   29 am
    48   29   30 1
    49   29   48 1
    50   30   32 1
    51   30   31 1
    52   30   49 1
    53   31   32 1
    54   31   50 1
    55   31   51 1
    56   32   52 1
    57   32   53 1
@<TRIPOS>MOLECULE
CHEMBL324489
   52    56     0     0     0
SMALL
USER_CHARGES

@<TRIPOS>ATOM
      1 C1          3.2461    1.5756   -1.4353 C.3       1 <0>        -0.0469
      2 N1          2.4523    0.4527   -0.9187 N.4       1 <0>        -0.3856
      3 C2          2.2801   -0.5504   -1.9771 C.3       1 <0>        -0.0204
      4 C3          1.3577   -1.6667   -1.4763 C.3       1 <0>         0.0888
      5 N2          1.9083   -2.1981   -0.2199 N.am      1 <0>        -0.6317
      6 C4          2.2646   -1.2422    0.8400 C.3       1 <0>         0.0749
      7 C5          3.1442   -0.1460    0.2298 C.3       1 <0>        -0.0225
      8 C6          2.0812   -3.5232   -0.0447 C.2       1 <0>         0.5811
      9 O1          1.7166   -4.3026   -0.9036 O.2       1 <0>        -0.5056
     10 C7          2.7133   -4.0284    1.1903 C.ar      1 <0>        -0.1805
     11 C8          2.2689   -3.5753    2.4406 C.ar      1 <0>        -0.0839
     12 C9          2.8421   -4.0320    3.5905 C.ar      1 <0>        -0.1226
     13 C10         3.8812   -4.9587    3.5376 C.ar      1 <0>         0.1280
     14 C11         4.3375   -5.4232    2.2868 C.ar      1 <0>        -0.1115
     15 C12         3.7456   -4.9580    1.1128 C.ar      1 <0>         0.0025
     16 C13         5.4162   -6.3694    2.5690 C.2       1 <0>        -0.1511
     17 C14         5.5487   -6.4241    3.9191 C.2       1 <0>         0.1435
     18 N3          4.6323   -5.5815    4.5065 N.pl3     1 <0>        -0.5796
     19 H1          4.5315   -5.4469    5.4618 H         1 <0>         0.4198
     20 C15         6.5253   -7.2589    4.6455 C.2       1 <0>        -0.1546
     21 C16         6.0957   -8.2860    5.4592 C.2       1 <0>         0.0194
     22 C17         7.0566   -9.0712    6.1445 C.ar      1 <0>        -0.1403
     23 C18         6.6471  -10.1224    6.9781 C.ar      1 <0>        -0.0485
     24 C19         7.5794  -10.8732    7.6336 C.ar      1 <0>        -0.1484
     25 C20         8.9336  -10.6057    7.4834 C.ar      1 <0>        -0.0489
     26 C21         9.3602   -9.5785    6.6701 C.ar      1 <0>        -0.1674
     27 C22         8.4286   -8.7984    5.9902 C.ar      1 <0>         0.1959
     28 N4          8.8515   -7.7690    5.1743 N.am      1 <0>        -0.6262
     29 C23         7.9645   -7.0089    4.5051 C.2       1 <0>         0.5484
     30 O2          8.3573   -6.1083    3.7853 O.2       1 <0>        -0.5205
     31 H2          4.2257    1.2145   -1.7483 H         1 <0>         0.1222
     32 H3          2.7335    2.0209   -2.2880 H         1 <0>         0.1256
     33 H4          3.3679    2.3247   -0.6529 H         1 <0>         0.1256
     34 H5          1.8377   -0.0799   -2.8552 H         1 <0>         0.1445
     35 H6          3.2504   -0.9714   -2.2403 H         1 <0>         0.1337
     36 H7          0.3601   -1.2652   -1.2980 H         1 <0>         0.0954
     37 H8          1.3081   -2.4621   -2.2199 H         1 <0>         0.1363
     38 H9          1.3586   -0.7979    1.2521 H         1 <0>         0.0976
     39 H10         2.8146   -1.7570    1.6278 H         1 <0>         0.1421
     40 H11         4.0884   -0.5792   -0.1001 H         1 <0>         0.1347
     41 H12         3.3385    0.6225    0.9780 H         1 <0>         0.1445
     42 H13         1.4644   -2.8567    2.4934 H         1 <0>         0.1303
     43 H14         2.4894   -3.6736    4.5463 H         1 <0>         0.1311
     44 H15         4.0880   -5.3132    0.1520 H         1 <0>         0.1340
     45 H16         5.9960   -6.9196    1.8427 H         1 <0>         0.1540
     46 H17         5.0412   -8.4893    5.5731 H         1 <0>         0.1465
     47 H18         5.5958  -10.3371    7.1013 H         1 <0>         0.1384
     48 H19         7.2613  -11.6820    8.2748 H         1 <0>         0.1355
     49 H20         9.6594  -11.2082    8.0092 H         1 <0>         0.1379
     50 H21        10.4158   -9.3786    6.5604 H         1 <0>         0.1383
     51 H22         9.8006   -7.5935    5.0783 H         1 <0>         0.4212
     52 H23         1.5469    0.7887   -0.6266 H         1 <0>         0.4252
@<TRIPOS>BOND
     1    1    2 1
     2    1   31 1
     3    1   32 1
     4    1   33 1
     5    2    7 1
     6    2    3 1
     7    2   52 1
     8    3    4 1
     9    3   34 1
    10    3   35 1
    11    4    5 1
    12    4   36 1
    13    4   37 1
    14    5    6 1
    15    5    8 am
    16    6    7 1
    17    6   38 1
    18    6   39 1
    19    7   40 1
    20    7   41 1
    21    8    9 2
    22    8   10 1
    23   10   15 ar
    24   10   11 ar
    25   11   12 ar
    26   11   42 1
    27   12   13 ar
    28   12   43 1
    29   13   18 1
    30   13   14 ar
    31   14   15 ar
    32   14   16 1
    33   15   44 1
    34   16   17 2
    35   16   45 1
    36   17   18 1
    37   17   20 1
    38   18   19 1
    39   20   29 1
    40   20   21 2
    41   21   22 1
    42   21   46 1
    43   22   27 ar
    44   22   23 ar
    45   23   24 ar
    46   23   47 1
    47   24   25 ar
    48   24   48 1
    49   25   26 ar
    50   25   49 1
    51   26   27 ar
    52   26   50 1
    53   27   28 1
    54   28   29 am
    55   28   51 1
    56   29   30 2
@<TRIPOS>MOLECULE
CHEMBL324489__1
   51    55     0     0     0
SMALL
USER_CHARGES

@<TRIPOS>ATOM
      1 C1          3.2391    1.4312   -1.5698 C.3       1 <0>         0.0243
      2 N1          2.4561    0.3115   -1.0302 N.3       1 <0>        -0.5435
      3 C2          2.1666   -0.6800   -2.0747 C.3       1 <0>         0.0398
      4 C3          1.2017   -1.7337   -1.5207 C.3       1 <0>         0.1165
      5 N2          1.7720   -2.2840   -0.2817 N.am      1 <0>        -0.6103
      6 C4          2.2139   -1.3431    0.7588 C.3       1 <0>         0.1030
      7 C5          3.1390   -0.3048    0.1151 C.3       1 <0>         0.0384
      8 C6          1.8862   -3.6152   -0.1043 C.2       1 <0>         0.5686
      9 O1          1.4523   -4.3798   -0.9441 O.2       1 <0>        -0.5351
     10 C7          2.5382   -4.1449    1.1099 C.ar      1 <0>        -0.1605
     11 C8          2.1556   -3.6724    2.3733 C.ar      1 <0>        -0.0706
     12 C9          2.7479   -4.1514    3.5043 C.ar      1 <0>        -0.1308
     13 C10         3.7452   -5.1205    3.4186 C.ar      1 <0>         0.1244
     14 C11         4.1393   -5.6048    2.1543 C.ar      1 <0>        -0.1141
     15 C12         3.5278   -5.1167    0.9998 C.ar      1 <0>        -0.0063
     16 C13         5.1867   -6.5948    2.4022 C.2       1 <0>        -0.1480
     17 C14         5.3624   -6.6536    3.7472 C.2       1 <0>         0.1278
     18 N3          4.5022   -5.7731    4.3631 N.pl3     1 <0>        -0.5831
     19 H1          4.4395   -5.6333    5.3210 H         1 <0>         0.4163
     20 C15         6.3276   -7.5275    4.4422 C.2       1 <0>        -0.1378
     21 C16         5.8835   -8.5351    5.2724 C.2       1 <0>         0.0075
     22 C17         6.8337   -9.3588    5.9268 C.ar      1 <0>        -0.1350
     23 C18         6.4093  -10.3912    6.7763 C.ar      1 <0>        -0.0500
     24 C19         7.3313  -11.1795    7.4018 C.ar      1 <0>        -0.1506
     25 C20         8.6896  -10.9686    7.2052 C.ar      1 <0>        -0.0543
     26 C21         9.1306   -9.9609    6.3756 C.ar      1 <0>        -0.1672
     27 C22         8.2097   -9.1434    5.7256 C.ar      1 <0>         0.1941
     28 N4          8.6471   -8.1333    4.8934 N.am      1 <0>        -0.6278
     29 C23         7.7703   -7.3377    4.2527 C.2       1 <0>         0.5453
     30 O2          8.1756   -6.4549    3.5178 O.2       1 <0>        -0.5143
     31 H2          4.2133    1.0686   -1.8975 H         1 <0>         0.0265
     32 H3          2.7108    1.8694   -2.4165 H         1 <0>         0.0709
     33 H4          3.3742    2.1865   -0.7956 H         1 <0>         0.0710
     34 H5          1.7104   -0.1835   -2.9311 H         1 <0>         0.0895
     35 H6          3.0933   -1.1628   -2.3848 H         1 <0>         0.0396
     36 H7          0.2382   -1.2712   -1.3065 H         1 <0>         0.0772
     37 H8          1.0732   -2.5326   -2.2511 H         1 <0>         0.0973
     38 H9          1.3477   -0.8431    1.1922 H         1 <0>         0.0794
     39 H10         2.7547   -1.8838    1.5356 H         1 <0>         0.1008
     40 H11         4.0522   -0.7928   -0.2255 H         1 <0>         0.0405
     41 H12         3.3880    0.4638    0.8468 H         1 <0>         0.0889
     42 H13         1.3838   -2.9210    2.4515 H         1 <0>         0.1330
     43 H14         2.4430   -3.7776    4.4706 H         1 <0>         0.1279
     44 H15         3.8225   -5.4867    0.0289 H         1 <0>         0.1316
     45 H16         5.7183   -7.1693    1.6581 H         1 <0>         0.1503
     46 H17         4.8259   -8.6943    5.4224 H         1 <0>         0.1464
     47 H18         5.3548  -10.5619    6.9354 H         1 <0>         0.1375
     48 H19         7.0018  -11.9737    8.0553 H         1 <0>         0.1332
     49 H20         9.4071  -11.6002    7.7078 H         1 <0>         0.1353
     50 H21        10.1894   -9.8051    6.2298 H         1 <0>         0.1366
     51 H22         9.5990   -7.9975    4.7650 H         1 <0>         0.4198
@<TRIPOS>BOND
     1    1    2 1
     2    1   31 1
     3    1   32 1
     4    1   33 1
     5    2    7 1
     6    2    3 1
     7    3    4 1
     8    3   34 1
     9    3   35 1
    10    4    5 1
    11    4   36 1
    12    4   37 1
    13    5    6 1
    14    5    8 am
    15    6    7 1
    16    6   38 1
    17    6   39 1
    18    7   40 1
    19    7   41 1
    20    8    9 2
    21    8   10 1
    22   10   15 ar
    23   10   11 ar
    24   11   12 ar
    25   11   42 1
    26   12   13 ar
    27   12   43 1
    28   13   18 1
    29   13   14 ar
    30   14   15 ar
    31   14   16 1
    32   15   44 1
    33   16   17 2
    34   16   45 1
    35   17   18 1
    36   17   20 1
    37   18   19 1
    38   20   29 1
    39   20   21 2
    40   21   22 1
    41   21   46 1
    42   22   27 ar
    43   22   23 ar
    44   23   24 ar
    45   23   47 1
    46   24   25 ar
    47   24   48 1
    48   25   26 ar
    49   25   49 1
    50   26   27 ar
    51   26   50 1
    52   27   28 1
    53   28   29 am
    54   28   51 1
    55   29   30 2
@<TRIPOS>MOLECULE
CHEMBL118748
   60    64     0     0     0
SMALL
USER_CHARGES

@<TRIPOS>ATOM
      1 C1         -0.0164    1.3606    0.0095 C.ar      1 <0>        -0.1503
      2 C2          1.1695    2.0826    0.0021 C.ar      1 <0>        -0.0533
      3 C3          2.3855    1.4349   -0.0130 C.ar      1 <0>        -0.1671
      4 C4          2.4309    0.0432   -0.0210 C.ar      1 <0>         0.1947
      5 C5          1.2276   -0.6864   -0.0134 C.ar      1 <0>        -0.1362
      6 C6          0.0021   -0.0041    0.0020 C.ar      1 <0>        -0.0500
      7 C7          1.2573   -2.1036   -0.0213 C.2       1 <0>         0.0093
      8 C8          2.4756   -2.7493   -0.0364 C.2       1 <0>        -0.1413
      9 C9          3.7089   -1.9541   -0.0440 C.2       1 <0>         0.5455
     10 N1          3.6467   -0.6094   -0.0351 N.am      1 <0>        -0.6276
     11 O1          4.7915   -2.5121   -0.0569 O.2       1 <0>        -0.5141
     12 C10         2.5385   -4.2238   -0.0444 C.2       1 <0>         0.1443
     13 C11         3.0453   -4.9919    0.9545 C.2       1 <0>        -0.1647
     14 C12         2.9090   -6.3846    0.5327 C.ar      1 <0>        -0.0677
     15 C13         3.2423   -7.6094    1.1200 C.ar      1 <0>        -0.1006
     16 C14         2.9771   -8.7837    0.4452 C.ar      1 <0>         0.0950
     17 C15         2.3815   -8.7511   -0.8134 C.ar      1 <0>        -0.1763
     18 C16         2.0492   -7.5510   -1.4019 C.ar      1 <0>        -0.0889
     19 C17         2.3067   -6.3559   -0.7393 C.ar      1 <0>         0.0790
     20 N2          2.0875   -5.0321   -1.0625 N.pl3     1 <0>        -0.5878
     21 H1          1.6790   -4.7186   -1.8845 H         1 <0>         0.4153
     22 O2          3.2990   -9.9775    1.0113 O.3       1 <0>        -0.3135
     23 C18         2.9973  -11.1545    0.2592 C.3       1 <0>         0.0662
     24 C19         3.4281  -12.3905    1.0515 C.3       1 <0>        -0.1516
     25 C20         3.1051  -13.6507    0.2462 C.3       1 <0>        -0.0044
     26 N3          3.5186  -14.8373    1.0070 N.4       1 <0>        -0.3802
     27 C21         4.9779  -14.8310    1.1655 C.3       1 <0>        -0.0119
     28 C22         5.4064  -16.0214    2.0262 C.3       1 <0>        -0.1182
     29 C23         4.9712  -17.3211    1.3430 C.3       1 <0>        -0.1723
     30 C24         3.4572  -17.2845    1.1156 C.3       1 <0>        -0.1190
     31 C25         3.1009  -16.0473    0.2887 C.3       1 <0>        -0.0049
     32 C26         5.3205  -18.4941    2.2224 C.2       1 <0>         0.4942
     33 O3          4.6389  -19.5045    2.1901 O.co2     1 <0>        -0.6843
     34 O4          6.2846  -18.4326    2.9662 O.co2     1 <0>        -0.6835
     35 H2         -0.9614    1.8832    0.0259 H         1 <0>         0.1335
     36 H3          1.1386    3.1621    0.0078 H         1 <0>         0.1358
     37 H4          3.3022    2.0058   -0.0191 H         1 <0>         0.1370
     38 H5         -0.9252   -0.5577    0.0083 H         1 <0>         0.1374
     39 H6          0.3378   -2.6701   -0.0151 H         1 <0>         0.1461
     40 H7          3.4687   -4.6404    1.8838 H         1 <0>         0.1498
     41 H8          3.7048   -7.6361    2.0956 H         1 <0>         0.1335
     42 H9          2.1786   -9.6759   -1.3331 H         1 <0>         0.1296
     43 H10         1.5880   -7.5381   -2.3785 H         1 <0>         0.1258
     44 H11         1.9248  -11.1999    0.0699 H         1 <0>         0.0694
     45 H12         3.5329  -11.1265   -0.6898 H         1 <0>         0.0695
     46 H13         4.5005  -12.3452    1.2408 H         1 <0>         0.0998
     47 H14         2.8925  -12.4185    2.0005 H         1 <0>         0.0981
     48 H15         2.0326  -13.6960    0.0570 H         1 <0>         0.1299
     49 H16         3.6406  -13.6226   -0.7027 H         1 <0>         0.1292
     50 H17         5.4497  -14.9032    0.1856 H         1 <0>         0.1230
     51 H18         5.2864  -13.9040    1.6489 H         1 <0>         0.1248
     52 H19         6.4903  -16.0160    2.1412 H         1 <0>         0.1132
     53 H20         4.9353  -15.9501    3.0065 H         1 <0>         0.0803
     54 H21         5.4815  -17.4178    0.3848 H         1 <0>         0.0793
     55 H22         3.1479  -18.1819    0.5797 H         1 <0>         0.1134
     56 H23         2.9457  -17.2394    2.0770 H         1 <0>         0.0802
     57 H24         2.0237  -16.0183    0.1247 H         1 <0>         0.1228
     58 H25         3.6127  -16.0935   -0.6726 H         1 <0>         0.1226
     59 H26         4.4674   -0.0923   -0.0399 H         1 <0>         0.4202
     60 H27         3.0834  -14.8206    1.9171 H         1 <0>         0.4220
@<TRIPOS>BOND
     1    1    6 ar
     2    1    2 ar
     3    1   35 1
     4    2    3 ar
     5    2   36 1
     6    3    4 ar
     7    3   37 1
     8    4   10 1
     9    4    5 ar
    10    5    6 ar
    11    5    7 1
    12    6   38 1
    13    7    8 2
    14    7   39 1
    15    8    9 1
    16    8   12 1
    17    9   10 am
    18    9   11 2
    19   10   59 1
    20   12   20 1
    21   12   13 2
    22   13   14 1
    23   13   40 1
    24   14   19 ar
    25   14   15 ar
    26   15   16 ar
    27   15   41 1
    28   16   17 ar
    29   16   22 1
    30   17   18 ar
    31   17   42 1
    32   18   19 ar
    33   18   43 1
    34   19   20 1
    35   20   21 1
    36   22   23 1
    37   23   24 1
    38   23   44 1
    39   23   45 1
    40   24   25 1
    41   24   46 1
    42   24   47 1
    43   25   26 1
    44   25   48 1
    45   25   49 1
    46   26   31 1
    47   26   27 1
    48   26   60 1
    49   27   28 1
    50   27   50 1
    51   27   51 1
    52   28   29 1
    53   28   52 1
    54   28   53 1
    55   29   30 1
    56   29   32 1
    57   29   54 1
    58   30   31 1
    59   30   55 1
    60   30   56 1
    61   31   57 1
    62   31   58 1
    63   32   33 2
    64   32   34 1
@<TRIPOS>MOLECULE
CHEMBL203346
   52    56     0     0     0
SMALL
USER_CHARGES

@<TRIPOS>ATOM
      1 C1          0.8480   -0.8203   -0.9315 C.3       1 <0>        -0.1456
      2 C2         -0.0208    0.0566   -0.0276 C.3       1 <0>        -0.0556
      3 C3         -0.0286    1.4901   -0.5625 C.3       1 <0>        -0.1450
      4 C4         -1.4287   -0.4805   -0.0093 C.ar      1 <0>        -0.0896
      5 C5         -2.1477   -0.5714   -1.1872 C.ar      1 <0>        -0.0919
      6 C6         -3.4380   -1.0631   -1.1741 C.ar      1 <0>        -0.1093
      7 C7         -4.0136   -1.4671    0.0241 C.ar      1 <0>         0.1458
      8 C8         -3.2883   -1.3748    1.2054 C.ar      1 <0>        -0.1447
      9 C9         -1.9967   -0.8867    1.1843 C.ar      1 <0>        -0.0975
     10 N1         -5.3192   -1.9647    0.0410 N.pl3     1 <0>        -0.6391
     11 C10        -5.8018   -2.6800   -1.0425 C.ar      1 <0>         0.3735
     12 C11        -7.1555   -3.0873   -1.0809 C.ar      1 <0>        -0.1067
     13 C12        -8.0637   -2.8011   -0.0569 C.ar      1 <0>        -0.0859
     14 C13        -9.3546   -3.2289   -0.1684 C.ar      1 <0>        -0.1051
     15 C14        -9.7803   -3.9446   -1.2840 C.ar      1 <0>        -0.0862
     16 C15        -8.9184   -4.2400   -2.3006 C.ar      1 <0>        -0.0992
     17 C16        -7.5908   -3.8164   -2.2166 C.ar      1 <0>        -0.0314
     18 C17        -6.6027   -4.0890   -3.2590 C.ar      1 <0>         0.0934
     19 N2         -5.3676   -3.6425   -3.0834 N.ar      1 <0>        -0.2006
     20 N3         -5.0026   -2.9818   -2.0495 N.ar      1 <0>        -0.3243
     21 C18        -6.9713   -4.8424   -4.4754 C.ar      1 <0>        -0.0226
     22 C19        -8.0809   -4.4736   -5.2216 C.ar      1 <0>        -0.0776
     23 C20        -8.4321   -5.1785   -6.3662 C.ar      1 <0>        -0.1206
     24 C21        -7.7016   -6.2489   -6.7900 C.ar      1 <0>        -0.0725
     25 C22        -6.5708   -6.6571   -6.0652 C.ar      1 <0>        -0.1125
     26 C23        -6.1946   -5.9453   -4.8977 C.ar      1 <0>         0.0010
     27 C24        -5.0567   -6.3714   -4.1957 C.ar      1 <0>        -0.1414
     28 C25        -4.3604   -7.4444   -4.6670 C.ar      1 <0>         0.0785
     29 N4         -4.7293   -8.0897   -5.7646 N.ar      1 <0>        -0.4847
     30 C26        -5.7885   -7.7538   -6.4635 C.ar      1 <0>         0.1449
     31 H1          1.8663   -0.4318   -0.9447 H         1 <0>         0.0579
     32 H2          0.8536   -1.8415   -0.5504 H         1 <0>         0.0560
     33 H3          0.4429   -0.8123   -1.9435 H         1 <0>         0.0574
     34 H4          0.3843    0.0487    0.9844 H         1 <0>         0.0766
     35 H5         -0.4337    1.4980   -1.5744 H         1 <0>         0.0568
     36 H6         -0.6475    2.1148    0.0815 H         1 <0>         0.0553
     37 H7          0.9897    1.8786   -0.5757 H         1 <0>         0.0581
     38 H8         -1.6996   -0.2571   -2.1182 H         1 <0>         0.1244
     39 H9         -3.9992   -1.1332   -2.0942 H         1 <0>         0.1362
     40 H10        -3.7329   -1.6877    2.1386 H         1 <0>         0.1230
     41 H11        -1.4309   -0.8181    2.1017 H         1 <0>         0.1249
     42 H12        -5.8875   -1.8092    0.8115 H         1 <0>         0.4180
     43 H13        -7.7464   -2.2470    0.8142 H         1 <0>         0.1325
     44 H14       -10.0573   -3.0091    0.6218 H         1 <0>         0.1359
     45 H15       -10.8078   -4.2713   -1.3460 H         1 <0>         0.1368
     46 H16        -9.2601   -4.7962   -3.1610 H         1 <0>         0.1422
     47 H17        -8.6784   -3.6298   -4.9093 H         1 <0>         0.1309
     48 H18        -9.3006   -4.8730   -6.9309 H         1 <0>         0.1341
     49 H19        -7.9930   -6.7827   -7.6825 H         1 <0>         0.1378
     50 H20        -4.7387   -5.8591   -3.2997 H         1 <0>         0.1379
     51 H21        -3.4837   -7.7777   -4.1316 H         1 <0>         0.1539
     52 H22        -6.0499   -8.3108   -7.3511 H         1 <0>         0.1659
@<TRIPOS>BOND
     1    1    2 1
     2    1   31 1
     3    1   32 1
     4    1   33 1
     5    2    3 1
     6    2    4 1
     7    2   34 1
     8    3   35 1
     9    3   36 1
    10    3   37 1
    11    4    9 ar
    12    4    5 ar
    13    5    6 ar
    14    5   38 1
    15    6    7 ar
    16    6   39 1
    17    7    8 ar
    18    7   10 1
    19    8    9 ar
    20    8   40 1
    21    9   41 1
    22   10   11 1
    23   10   42 1
    24   11   20 ar
    25   11   12 ar
    26   12   17 ar
    27   12   13 ar
    28   13   14 ar
    29   13   43 1
    30   14   15 ar
    31   14   44 1
    32   15   16 ar
    33   15   45 1
    34   16   17 ar
    35   16   46 1
    36   17   18 ar
    37   18   19 ar
    38   18   21 1
    39   19   20 ar
    40   21   26 ar
    41   21   22 ar
    42   22   23 ar
    43   22   47 1
    44   23   24 ar
    45   23   48 1
    46   24   25 ar
    47   24   49 1
    48   25   30 ar
    49   25   26 ar
    50   26   27 ar
    51   27   28 ar
    52   27   50 1
    53   28   29 ar
    54   28   51 1
    55   29   30 ar
    56   30   52 1
@<TRIPOS>MOLECULE
CHEMBL203346__1
   53    57     0     0     0
SMALL
USER_CHARGES

@<TRIPOS>ATOM
      1 C1          0.8573   -0.8571   -0.9153 C.3       1 <0>        -0.1464
      2 C2         -0.0077    0.0220   -0.0099 C.3       1 <0>        -0.0624
      3 C3         -0.0059    1.4573   -0.5399 C.3       1 <0>        -0.1471
      4 C4         -1.4189   -0.5065    0.0040 C.ar      1 <0>        -0.0640
      5 C5         -2.1363   -0.5890   -1.1754 C.ar      1 <0>        -0.0937
      6 C6         -3.4297   -1.0729   -1.1663 C.ar      1 <0>        -0.1097
      7 C7         -4.0099   -1.4775    0.0294 C.ar      1 <0>         0.1062
      8 C8         -3.2862   -1.3937    1.2123 C.ar      1 <0>        -0.1216
      9 C9         -1.9916   -0.9133    1.1953 C.ar      1 <0>        -0.0937
     10 N1         -5.3185   -1.9671    0.0423 N.pl3     1 <0>        -0.5991
     11 C10        -5.8015   -2.6811   -1.0419 C.ar      1 <0>         0.4521
     12 C11        -7.1584   -3.0771   -1.0864 C.ar      1 <0>        -0.0833
     13 C12        -8.0695   -2.7807   -0.0678 C.ar      1 <0>        -0.0814
     14 C13        -9.3633   -3.1979   -0.1849 C.ar      1 <0>        -0.0559
     15 C14        -9.7892   -3.9128   -1.3010 C.ar      1 <0>        -0.0672
     16 C15        -8.9246   -4.2181   -2.3123 C.ar      1 <0>        -0.0587
     17 C16        -7.5939   -3.8054   -2.2225 C.ar      1 <0>        -0.0508
     18 C17        -6.6027   -4.0890   -3.2590 C.ar      1 <0>         0.2523
     19 N2         -5.3648   -3.6524   -3.0781 N.ar      1 <0>        -0.2392
     20 N3         -4.9996   -2.9922   -2.0440 N.ar      1 <0>        -0.3561
     21 C18        -6.9713   -4.8424   -4.4754 C.ar      1 <0>        -0.1414
     22 C19        -6.4212   -6.0917   -4.7221 C.ar      1 <0>        -0.0196
     23 C20        -6.7642   -6.8046   -5.8643 C.ar      1 <0>        -0.1366
     24 C21        -7.6471   -6.3020   -6.7736 C.ar      1 <0>        -0.0185
     25 C22        -8.2280   -5.0412   -6.5640 C.ar      1 <0>        -0.1237
     26 C23        -7.8935   -4.3025   -5.4005 C.ar      1 <0>         0.0219
     27 C24        -8.4931   -3.0477   -5.2133 C.ar      1 <0>        -0.1905
     28 C25        -9.3727   -2.5959   -6.1516 C.ar      1 <0>         0.1203
     29 N4         -9.6734   -3.3083   -7.2283 N.ar      1 <0>        -0.4820
     30 C26        -9.1418   -4.4833   -7.4733 C.ar      1 <0>         0.1764
     31 H1          1.8780   -0.4749   -0.9253 H         1 <0>         0.0644
     32 H2          0.8560   -1.8797   -0.5377 H         1 <0>         0.0567
     33 H3          0.4541   -0.8432   -1.9279 H         1 <0>         0.0564
     34 H4          0.3954    0.0081    1.0028 H         1 <0>         0.0833
     35 H5         -0.4090    1.4712   -1.5525 H         1 <0>         0.0567
     36 H6         -0.6221    2.0836    0.1052 H         1 <0>         0.0578
     37 H7          1.0149    1.8396   -0.5499 H         1 <0>         0.0645
     38 H8         -1.6847   -0.2743   -2.1046 H         1 <0>         0.1319
     39 H9         -3.9897   -1.1363   -2.0877 H         1 <0>         0.1300
     40 H10        -3.7344   -1.7070    2.1436 H         1 <0>         0.1323
     41 H11        -1.4271   -0.8514    2.1139 H         1 <0>         0.1357
     42 H12        -5.8887   -1.8070    0.8105 H         1 <0>         0.4349
     43 H13        -7.7520   -2.2270    0.8035 H         1 <0>         0.1519
     44 H14       -10.0682   -2.9701    0.6009 H         1 <0>         0.1583
     45 H15       -10.8191   -4.2310   -1.3675 H         1 <0>         0.1581
     46 H16        -9.2664   -4.7736   -3.1731 H         1 <0>         0.1561
     47 H17        -5.7187   -6.5145   -4.0192 H         1 <0>         0.1405
     48 H18        -6.3228   -7.7754   -6.0353 H         1 <0>         0.1496
     49 H19        -7.8992   -6.8732   -7.6548 H         1 <0>         0.1528
     50 H20        -8.2624   -2.4517   -4.3426 H         1 <0>         0.1309
     51 H21        -9.8378   -1.6309   -6.0137 H         1 <0>         0.1627
     52 H22        -9.4174   -5.0263   -8.3652 H         1 <0>         0.1776
     53 H23        -4.7045   -3.8390   -3.7637 H         1 <0>         0.4703
@<TRIPOS>BOND
     1    1    2 1
     2    1   31 1
     3    1   32 1
     4    1   33 1
     5    2    3 1
     6    2    4 1
     7    2   34 1
     8    3   35 1
     9    3   36 1
    10    3   37 1
    11    4    9 ar
    12    4    5 ar
    13    5    6 ar
    14    5   38 1
    15    6    7 ar
    16    6   39 1
    17    7    8 ar
    18    7   10 1
    19    8    9 ar
    20    8   40 1
    21    9   41 1
    22   10   11 1
    23   10   42 1
    24   11   20 ar
    25   11   12 ar
    26   12   17 ar
    27   12   13 ar
    28   13   14 ar
    29   13   43 1
    30   14   15 ar
    31   14   44 1
    32   15   16 ar
    33   15   45 1
    34   16   17 ar
    35   16   46 1
    36   17   18 ar
    37   18   19 ar
    38   18   21 1
    39   19   20 ar
    40   19   53 1
    41   21   26 ar
    42   21   22 ar
    43   22   23 ar
    44   22   47 1
    45   23   24 ar
    46   23   48 1
    47   24   25 ar
    48   24   49 1
    49   25   30 ar
    50   25   26 ar
    51   26   27 ar
    52   27   28 ar
    53   27   50 1
    54   28   29 ar
    55   28   51 1
    56   29   30 ar
    57   30   52 1
@<TRIPOS>MOLECULE
CHEMBL429845
   69    74     0     0     0
SMALL
USER_CHARGES

@<TRIPOS>ATOM
      1 C1         -0.6422    1.7717   -0.1531 C.3       1 <0>        -0.1560
      2 C2         -0.2411    0.2952   -0.1601 C.3       1 <0>        -0.0257
      3 C3          0.7229    0.0231    0.9965 C.3       1 <0>        -0.1546
      4 C4         -1.4715   -0.5603   -0.0004 C.2       1 <0>        -0.0128
      5 C5         -2.3712   -0.5421    1.0824 C.2       1 <0>        -0.1020
      6 C6         -3.3505   -1.4828    0.8197 C.2       1 <0>         0.1134
      7 N1         -3.0855   -2.0641   -0.3632 N.pl3     1 <0>        -0.2256
      8 C7         -1.9351   -1.5066   -0.8892 C.2       1 <0>        -0.1037
      9 C8         -1.4723   -1.9713   -2.1441 C.2       1 <0>         0.5373
     10 N2         -2.1516   -2.9160   -2.7731 N.2       1 <0>        -0.6175
     11 C9         -3.2605   -3.4409   -2.2549 C.2       1 <0>         0.3422
     12 N3         -3.7367   -3.0644   -1.1002 N.2       1 <0>        -0.3466
     13 N4         -0.3260   -1.4443   -2.7048 N.pl3     1 <0>        -0.6120
     14 C10         0.0516   -1.8116   -4.0025 C.ar      1 <0>         0.0921
     15 C11        -0.8875   -2.3354   -4.8736 C.ar      1 <0>        -0.0391
     16 C12        -0.5076   -2.7003   -6.1673 C.ar      1 <0>        -0.1633
     17 C13         0.8205   -2.5339   -6.5744 C.ar      1 <0>         0.1849
     18 C14         1.7507   -2.0099   -5.6967 C.ar      1 <0>        -0.1765
     19 C15         1.3709   -1.6441   -4.4172 C.ar      1 <0>         0.1345
     20 F1          2.2837   -1.1273   -3.5658 F         1 <0>        -0.1203
     21 F2          1.1935   -2.8855   -7.8244 F         1 <0>        -0.0991
     22 C16        -1.5037   -3.2599   -7.1014 C.2       1 <0>         0.5664
     23 O1         -1.1708   -3.5768   -8.2270 O.2       1 <0>        -0.5117
     24 N5         -2.7825   -3.4196   -6.7067 N.am      1 <0>        -0.6949
     25 C17        -3.7713   -3.9751   -7.6340 C.3       1 <0>         0.0776
     26 C18        -5.1428   -3.2994   -7.6923 C.3       1 <0>        -0.1916
     27 C19        -4.9931   -4.6707   -7.0304 C.3       1 <0>        -0.1858
     28 C20        -2.2852    0.3224    2.2785 C.2       1 <0>         0.2555
     29 N6         -1.3602    1.2175    2.5241 N.2       1 <0>        -0.2408
     30 N7         -1.6002    1.7810    3.6555 N.2       1 <0>        -0.3193
     31 C21        -2.6881    1.2679    4.1770 C.2       1 <0>         0.4062
     32 O2         -3.1490    0.3393    3.3172 O.3       1 <0>        -0.2384
     33 N8         -3.2600    1.6192    5.3856 N.pl3     1 <0>        -0.5860
     34 C22        -4.4848    0.9589    5.8630 C.3       1 <0>         0.1011
     35 C23        -4.2535    0.4888    7.3029 C.3       1 <0>        -0.0215
     36 N9         -3.8184    1.6258    8.1240 N.4       1 <0>        -0.3863
     37 C24        -2.5157    2.1130    7.6534 C.3       1 <0>        -0.0230
     38 C25        -2.6578    2.6596    6.2334 C.3       1 <0>         0.1156
     39 C26        -3.7028    1.1998    9.5251 C.3       1 <0>        -0.0474
     40 H1          0.2477    2.3904   -0.2686 H         1 <0>         0.0673
     41 H2         -1.3289    1.9655   -0.9771 H         1 <0>         0.0504
     42 H3         -1.1310    2.0110    0.7913 H         1 <0>         0.0877
     43 H4          0.2477    0.0559   -1.1045 H         1 <0>         0.0620
     44 H5          0.2340    0.2624    1.9409 H         1 <0>         0.0853
     45 H6          1.0086   -1.0288    0.9915 H         1 <0>         0.0503
     46 H7          1.6127    0.6419    0.8810 H         1 <0>         0.0677
     47 H8         -4.1894   -1.7129    1.4597 H         1 <0>         0.1915
     48 H9         -3.7802   -4.2099   -2.8071 H         1 <0>         0.2278
     49 H10         0.2179   -0.8197   -2.1999 H         1 <0>         0.4299
     50 H11        -1.9113   -2.4620   -4.5540 H         1 <0>         0.1823
     51 H12         2.7759   -1.8820   -6.0114 H         1 <0>         0.1674
     52 H13        -3.0481   -3.1668   -5.8087 H         1 <0>         0.4007
     53 H14        -3.3694   -4.3800   -8.5628 H         1 <0>         0.1424
     54 H15        -5.3093   -2.4416   -7.0408 H         1 <0>         0.0963
     55 H16        -5.6434   -3.2595   -8.6597 H         1 <0>         0.1059
     56 H17        -5.3953   -5.5329   -7.5624 H         1 <0>         0.1073
     57 H18        -5.0612   -4.7150   -5.9434 H         1 <0>         0.0972
     58 H19        -5.3153    1.6644    5.8370 H         1 <0>         0.1033
     59 H20        -4.7093    0.1009    5.2293 H         1 <0>         0.1289
     60 H21        -5.1813    0.0831    7.7063 H         1 <0>         0.1492
     61 H22        -3.4840   -0.2831    7.3141 H         1 <0>         0.1355
     62 H23        -2.1629    2.9042    8.3150 H         1 <0>         0.1517
     63 H24        -1.7987    1.2920    7.6539 H         1 <0>         0.1364
     64 H25        -1.6749    2.9255    5.8445 H         1 <0>         0.1428
     65 H26        -3.3006    3.5398    6.2455 H         1 <0>         0.1026
     66 H27        -2.9716    0.3951    9.6011 H         1 <0>         0.1229
     67 H28        -3.3799    2.0430   10.1358 H         1 <0>         0.1280
     68 H29        -4.6712    0.8453    9.8782 H         1 <0>         0.1269
     69 H30        -4.4984    2.3681    8.0557 H         1 <0>         0.4270
@<TRIPOS>BOND
     1    1    2 1
     2    1   40 1
     3    1   41 1
     4    1   42 1
     5    2    3 1
     6    2    4 1
     7    2   43 1
     8    3   44 1
     9    3   45 1
    10    3   46 1
    11    4    8 2
    12    4    5 1
    13    5    6 2
    14    5   28 1
    15    6    7 1
    16    6   47 1
    17    7   12 1
    18    7    8 1
    19    8    9 1
    20    9   10 2
    21    9   13 1
    22   10   11 1
    23   11   12 2
    24   11   48 1
    25   13   14 1
    26   13   49 1
    27   14   19 ar
    28   14   15 ar
    29   15   16 ar
    30   15   50 1
    31   16   17 ar
    32   16   22 1
    33   17   18 ar
    34   17   21 1
    35   18   19 ar
    36   18   51 1
    37   19   20 1
    38   22   23 2
    39   22   24 am
    40   24   25 1
    41   24   52 1
    42   25   27 1
    43   25   26 1
    44   25   53 1
    45   26   27 1
    46   26   54 1
    47   26   55 1
    48   27   56 1
    49   27   57 1
    50   28   32 1
    51   28   29 2
    52   29   30 1
    53   30   31 2
    54   31   32 1
    55   31   33 1
    56   33   38 1
    57   33   34 1
    58   34   35 1
    59   34   58 1
    60   34   59 1
    61   35   36 1
    62   35   60 1
    63   35   61 1
    64   36   37 1
    65   36   39 1
    66   36   69 1
    67   37   38 1
    68   37   62 1
    69   37   63 1
    70   38   64 1
    71   38   65 1
    72   39   66 1
    73   39   67 1
    74   39   68 1
@<TRIPOS>MOLECULE
CHEMBL429845__1
   68    73     0     0     0
SMALL
USER_CHARGES

@<TRIPOS>ATOM
      1 C1         -0.6422    1.7717   -0.1531 C.3       1 <0>        -0.1574
      2 C2         -0.2411    0.2952   -0.1601 C.3       1 <0>        -0.0211
      3 C3          0.7229    0.0231    0.9965 C.3       1 <0>        -0.1564
      4 C4         -1.4715   -0.5603   -0.0004 C.2       1 <0>        -0.0189
      5 C5         -2.3712   -0.5421    1.0824 C.2       1 <0>        -0.0794
      6 C6         -3.3505   -1.4828    0.8197 C.2       1 <0>         0.1091
      7 N1         -3.0855   -2.0641   -0.3632 N.pl3     1 <0>        -0.2298
      8 C7         -1.9351   -1.5066   -0.8892 C.2       1 <0>        -0.1084
      9 C8         -1.4723   -1.9713   -2.1441 C.2       1 <0>         0.5376
     10 N2         -2.1516   -2.9160   -2.7731 N.2       1 <0>        -0.6215
     11 C9         -3.2605   -3.4409   -2.2549 C.2       1 <0>         0.3339
     12 N3         -3.7367   -3.0644   -1.1002 N.2       1 <0>        -0.3430
     13 N4         -0.3260   -1.4443   -2.7048 N.pl3     1 <0>        -0.6156
     14 C10         0.0516   -1.8116   -4.0025 C.ar      1 <0>         0.0989
     15 C11        -0.8875   -2.3354   -4.8736 C.ar      1 <0>        -0.0408
     16 C12        -0.5076   -2.7003   -6.1673 C.ar      1 <0>        -0.1641
     17 C13         0.8205   -2.5339   -6.5744 C.ar      1 <0>         0.1801
     18 C14         1.7507   -2.0099   -5.6967 C.ar      1 <0>        -0.1769
     19 C15         1.3709   -1.6441   -4.4172 C.ar      1 <0>         0.1321
     20 F1          2.2837   -1.1273   -3.5658 F         1 <0>        -0.1200
     21 F2          1.1935   -2.8855   -7.8244 F         1 <0>        -0.1018
     22 C16        -1.5037   -3.2599   -7.1014 C.2       1 <0>         0.5679
     23 O1         -1.1708   -3.5768   -8.2270 O.2       1 <0>        -0.5153
     24 N5         -2.7825   -3.4196   -6.7067 N.am      1 <0>        -0.6950
     25 C17        -3.7713   -3.9751   -7.6340 C.3       1 <0>         0.0781
     26 C18        -5.1428   -3.2994   -7.6923 C.3       1 <0>        -0.1920
     27 C19        -4.9931   -4.6707   -7.0304 C.3       1 <0>        -0.1861
     28 C20        -2.2852    0.3224    2.2785 C.2       1 <0>         0.2137
     29 N6         -1.3602    1.2175    2.5241 N.2       1 <0>        -0.2356
     30 N7         -1.6002    1.7810    3.6555 N.2       1 <0>        -0.3457
     31 C21        -2.6881    1.2679    4.1770 C.2       1 <0>         0.4338
     32 O2         -3.1490    0.3393    3.3172 O.3       1 <0>        -0.2433
     33 N8         -3.2600    1.6192    5.3856 N.pl3     1 <0>        -0.5668
     34 C22        -4.4847    0.9582    5.8616 C.3       1 <0>         0.1258
     35 C23        -4.2488    0.4704    7.2950 C.3       1 <0>         0.0388
     36 N9         -3.7879    1.5939    8.1216 N.3       1 <0>        -0.5431
     37 C24        -2.4961    2.1089    7.6483 C.3       1 <0>         0.0367
     38 C25        -2.6567    2.6596    6.2322 C.3       1 <0>         0.1409
     39 C26        -3.7147    1.2103    9.5377 C.3       1 <0>         0.0240
     40 H1          0.2477    2.3904   -0.2686 H         1 <0>         0.0645
     41 H2         -1.3289    1.9655   -0.9771 H         1 <0>         0.0478
     42 H3         -1.1310    2.0110    0.7913 H         1 <0>         0.0930
     43 H4          0.2477    0.0559   -1.1045 H         1 <0>         0.0576
     44 H5          0.2340    0.2624    1.9409 H         1 <0>         0.0905
     45 H6          1.0086   -1.0288    0.9915 H         1 <0>         0.0480
     46 H7          1.6127    0.6419    0.8810 H         1 <0>         0.0651
     47 H8         -4.1894   -1.7129    1.4597 H         1 <0>         0.1920
     48 H9         -3.7802   -4.2099   -2.8071 H         1 <0>         0.2247
     49 H10         0.2179   -0.8197   -2.1999 H         1 <0>         0.4304
     50 H11        -1.9113   -2.4620   -4.5540 H         1 <0>         0.1831
     51 H12         2.7759   -1.8820   -6.0114 H         1 <0>         0.1657
     52 H13        -3.0481   -3.1668   -5.8087 H         1 <0>         0.4021
     53 H14        -3.3694   -4.3800   -8.5628 H         1 <0>         0.1415
     54 H15        -5.3093   -2.4416   -7.0408 H         1 <0>         0.0970
     55 H16        -5.6434   -3.2595   -8.6597 H         1 <0>         0.1050
     56 H17        -5.3953   -5.5329   -7.5624 H         1 <0>         0.1064
     57 H18        -5.0612   -4.7150   -5.9434 H         1 <0>         0.0981
     58 H19        -5.3125    1.6671    5.8476 H         1 <0>         0.0864
     59 H20        -4.7156    0.1085    5.2190 H         1 <0>         0.0889
     60 H21        -5.1796    0.0765    7.7030 H         1 <0>         0.0947
     61 H22        -3.4917   -0.3138    7.2924 H         1 <0>         0.0416
     62 H23        -2.1559    2.9034    8.3125 H         1 <0>         0.0973
     63 H24        -1.7635    1.3019    7.6407 H         1 <0>         0.0425
     64 H25        -1.6798    2.9343    5.8345 H         1 <0>         0.1041
     65 H26        -3.3055    3.5352    6.2546 H         1 <0>         0.0849
     66 H27        -3.0166    0.3814    9.6541 H         1 <0>         0.0279
     67 H28        -3.3709    2.0603   10.1271 H         1 <0>         0.0734
     68 H29        -4.7024    0.9046    9.8828 H         1 <0>         0.0727
@<TRIPOS>BOND
     1    1    2 1
     2    1   40 1
     3    1   41 1
     4    1   42 1
     5    2    3 1
     6    2    4 1
     7    2   43 1
     8    3   44 1
     9    3   45 1
    10    3   46 1
    11    4    8 2
    12    4    5 1
    13    5    6 2
    14    5   28 1
    15    6    7 1
    16    6   47 1
    17    7   12 1
    18    7    8 1
    19    8    9 1
    20    9   10 2
    21    9   13 1
    22   10   11 1
    23   11   12 2
    24   11   48 1
    25   13   14 1
    26   13   49 1
    27   14   19 ar
    28   14   15 ar
    29   15   16 ar
    30   15   50 1
    31   16   17 ar
    32   16   22 1
    33   17   18 ar
    34   17   21 1
    35   18   19 ar
    36   18   51 1
    37   19   20 1
    38   22   23 2
    39   22   24 am
    40   24   25 1
    41   24   52 1
    42   25   27 1
    43   25   26 1
    44   25   53 1
    45   26   27 1
    46   26   54 1
    47   26   55 1
    48   27   56 1
    49   27   57 1
    50   28   32 1
    51   28   29 2
    52   29   30 1
    53   30   31 2
    54   31   32 1
    55   31   33 1
    56   33   38 1
    57   33   34 1
    58   34   35 1
    59   34   58 1
    60   34   59 1
    61   35   36 1
    62   35   60 1
    63   35   61 1
    64   36   37 1
    65   36   39 1
    66   37   38 1
    67   37   62 1
    68   37   63 1
    69   38   64 1
    70   38   65 1
    71   39   66 1
    72   39   67 1
    73   39   68 1
@<TRIPOS>MOLECULE
CHEMBL214530
   73    77     0     0     0
SMALL
USER_CHARGES

@<TRIPOS>ATOM
      1 C1          0.0307    1.5035    0.0088 C.3       1 <0>        -0.1270
      2 C2          0.0391   -0.0035    0.0008 C.ar      1 <0>        -0.0380
      3 C3          0.0395   -0.6862   -1.2002 C.ar      1 <0>        -0.1228
      4 C4          0.0472   -2.0662   -1.2163 C.ar      1 <0>        -0.0788
      5 C5          0.0541   -2.7807   -0.0161 C.ar      1 <0>        -0.1439
      6 C6          0.0537   -2.0964    1.1980 C.ar      1 <0>        -0.0378
      7 C7          0.0522   -0.7052    1.2058 C.ar      1 <0>        -0.0516
      8 C8          0.0583    0.0307    2.4941 C.ar      1 <0>        -0.0768
      9 C9          0.9846    1.0651    2.7005 C.ar      1 <0>        -0.0509
     10 C10         1.0120    1.7560    3.8710 C.ar      1 <0>        -0.1204
     11 C11         0.1046    1.4370    4.8935 C.ar      1 <0>         0.2186
     12 C12        -0.8360    0.3928    4.6947 C.ar      1 <0>        -0.2150
     13 C13        -0.8526   -0.3044    3.4800 C.ar      1 <0>        -0.0356
     14 C14        -1.7347    0.0941    5.7365 C.ar      1 <0>         0.2445
     15 N1         -1.6631    0.7960    6.8481 N.ar      1 <0>        -0.5589
     16 C15        -0.7674    1.7695    7.0006 C.ar      1 <0>         0.5721
     17 N2          0.0987    2.0934    6.0602 N.ar      1 <0>        -0.5738
     18 N3         -0.7445    2.4692    8.1934 N.pl3     1 <0>        -0.6953
     19 C16        -1.6935    2.1336    9.2578 C.3       1 <0>         0.1380
     20 C17        -1.4568    3.0503   10.4598 C.3       1 <0>        -0.1303
     21 C18        -2.4479    2.6998   11.5714 C.3       1 <0>         0.0600
     22 N4         -2.2207    3.5799   12.7254 N.3       1 <0>        -0.5375
     23 C19        -0.9105    3.3172   13.3384 C.3       1 <0>         0.0132
     24 C20        -0.6900    4.2938   14.4967 C.3       1 <0>         0.0625
     25 O1         -1.7622    4.1636   15.4341 O.3       1 <0>        -0.3853
     26 C21        -3.0528    4.4133   14.8709 C.3       1 <0>         0.0627
     27 C22        -3.2973    3.4379   13.7164 C.3       1 <0>         0.0171
     28 C23         0.0613   -4.2589   -0.0337 C.2       1 <0>         0.5636
     29 O2          0.0673   -4.8792    1.0117 O.2       1 <0>        -0.5105
     30 N5          0.0613   -4.9189   -1.2088 N.am      1 <0>        -0.6648
     31 C24         0.1847   -6.3117   -1.2285 C.ar      1 <0>         0.1480
     32 C25         0.8044   -6.9706   -0.1742 C.ar      1 <0>        -0.0949
     33 C26         0.9243   -8.3461   -0.1966 C.ar      1 <0>        -0.1031
     34 C27         0.4282   -9.0677   -1.2671 C.ar      1 <0>        -0.0855
     35 C28        -0.1891   -8.4150   -2.3181 C.ar      1 <0>        -0.1662
     36 C29        -0.3170   -7.0397   -2.2994 C.ar      1 <0>        -0.0650
     37 C30        -0.9951   -6.3296   -3.4427 C.3       1 <0>        -0.1390
     38 C31        -0.7282   -9.2053   -3.4825 C.3       1 <0>         0.5116
     39 F1         -0.4873  -10.5674   -3.2730 F         1 <0>        -0.1747
     40 F2         -2.1055   -8.9875   -3.5962 F         1 <0>        -0.1744
     41 F3         -0.0924   -8.7948   -4.6590 F         1 <0>        -0.1748
     42 H1          1.0563    1.8726    0.0029 H         1 <0>         0.0796
     43 H2         -0.4919    1.8686   -0.8754 H         1 <0>         0.0728
     44 H3         -0.4783    1.8593    0.9045 H         1 <0>         0.0758
     45 H4          0.0335   -0.1376   -2.1305 H         1 <0>         0.1349
     46 H5          0.0475   -2.5945   -2.1583 H         1 <0>         0.1262
     47 H6          0.0591   -2.6439    2.1290 H         1 <0>         0.1407
     48 H7          1.6859    1.3155    1.9182 H         1 <0>         0.1342
     49 H8          1.7312    2.5489    4.0142 H         1 <0>         0.1397
     50 H9         -1.5668   -1.0978    3.3160 H         1 <0>         0.1363
     51 H10        -2.4664   -0.6926    5.6263 H         1 <0>         0.1784
     52 H11        -0.1001    3.1822    8.3252 H         1 <0>         0.4154
     53 H12        -2.7117    2.2687    8.8928 H         1 <0>         0.0698
     54 H13        -1.5501    1.0958    9.5586 H         1 <0>         0.0676
     55 H14        -0.4387    2.9152   10.8248 H         1 <0>         0.0706
     56 H15        -1.6003    4.0881   10.1590 H         1 <0>         0.0805
     57 H16        -3.4661    2.8349   11.2064 H         1 <0>         0.0814
     58 H17        -2.3045    1.6620   11.8722 H         1 <0>         0.0404
     59 H18        -0.8830    2.2945   13.7144 H         1 <0>         0.0443
     60 H19        -0.1264    3.4530   12.5935 H         1 <0>         0.0886
     61 H20         0.2547    4.0657   14.9902 H         1 <0>         0.0988
     62 H21        -0.6639    5.3137   14.1129 H         1 <0>         0.0605
     63 H22        -3.8171    4.2716   15.6351 H         1 <0>         0.0996
     64 H23        -3.0955    5.4366   14.4980 H         1 <0>         0.0607
     65 H24        -4.2555    3.6617   13.2475 H         1 <0>         0.0880
     66 H25        -3.3080    2.4171   14.0985 H         1 <0>         0.0446
     67 H26        -0.0244   -4.4277   -2.0409 H         1 <0>         0.4129
     68 H27         1.1923   -6.4077    0.6618 H         1 <0>         0.1555
     69 H28         1.4063   -8.8589    0.6226 H         1 <0>         0.1402
     70 H29         0.5235  -10.1434   -1.2823 H         1 <0>         0.1407
     71 H30        -0.2551   -6.0719   -4.2004 H         1 <0>         0.0847
     72 H31        -1.7501   -6.9831   -3.8797 H         1 <0>         0.0837
     73 H32        -1.4704   -5.4203   -3.0749 H         1 <0>         0.0737
@<TRIPOS>BOND
     1    1    2 1
     2    1   42 1
     3    1   43 1
     4    1   44 1
     5    2    7 ar
     6    2    3 ar
     7    3    4 ar
     8    3   45 1
     9    4    5 ar
    10    4   46 1
    11    5    6 ar
    12    5   28 1
    13    6    7 ar
    14    6   47 1
    15    7    8 1
    16    8   13 ar
    17    8    9 ar
    18    9   10 ar
    19    9   48 1
    20   10   11 ar
    21   10   49 1
    22   11   17 ar
    23   11   12 ar
    24   12   13 ar
    25   12   14 ar
    26   13   50 1
    27   14   15 ar
    28   14   51 1
    29   15   16 ar
    30   16   17 ar
    31   16   18 1
    32   18   19 1
    33   18   52 1
    34   19   20 1
    35   19   53 1
    36   19   54 1
    37   20   21 1
    38   20   55 1
    39   20   56 1
    40   21   22 1
    41   21   57 1
    42   21   58 1
    43   22   27 1
    44   22   23 1
    45   23   24 1
    46   23   59 1
    47   23   60 1
    48   24   25 1
    49   24   61 1
    50   24   62 1
    51   25   26 1
    52   26   27 1
    53   26   63 1
    54   26   64 1
    55   27   65 1
    56   27   66 1
    57   28   29 2
    58   28   30 am
    59   30   31 1
    60   30   67 1
    61   31   36 ar
    62   31   32 ar
    63   32   33 ar
    64   32   68 1
    65   33   34 ar
    66   33   69 1
    67   34   35 ar
    68   34   70 1
    69   35   36 ar
    70   35   38 1
    71   36   37 1
    72   37   71 1
    73   37   72 1
    74   37   73 1
    75   38   39 1
    76   38   40 1
    77   38   41 1
@<TRIPOS>MOLECULE
CHEMBL214530__1
   74    78     0     0     0
SMALL
USER_CHARGES

@<TRIPOS>ATOM
      1 C1          0.0307    1.5035    0.0088 C.3       1 <0>        -0.1274
      2 C2          0.0391   -0.0035    0.0008 C.ar      1 <0>        -0.0368
      3 C3          0.0395   -0.6862   -1.2002 C.ar      1 <0>        -0.1217
      4 C4          0.0472   -2.0662   -1.2163 C.ar      1 <0>        -0.0748
      5 C5          0.0541   -2.7807   -0.0161 C.ar      1 <0>        -0.1423
      6 C6          0.0537   -2.0964    1.1980 C.ar      1 <0>        -0.0365
      7 C7          0.0522   -0.7052    1.2058 C.ar      1 <0>        -0.0607
      8 C8          0.0583    0.0307    2.4941 C.ar      1 <0>        -0.0611
      9 C9          0.9846    1.0651    2.7005 C.ar      1 <0>        -0.0476
     10 C10         1.0120    1.7560    3.8710 C.ar      1 <0>        -0.1189
     11 C11         0.1046    1.4370    4.8935 C.ar      1 <0>         0.2130
     12 C12        -0.8360    0.3928    4.6947 C.ar      1 <0>        -0.2048
     13 C13        -0.8526   -0.3044    3.4800 C.ar      1 <0>        -0.0426
     14 C14        -1.7347    0.0941    5.7365 C.ar      1 <0>         0.2465
     15 N1         -1.6631    0.7960    6.8481 N.ar      1 <0>        -0.5649
     16 C15        -0.7674    1.7695    7.0006 C.ar      1 <0>         0.5643
     17 N2          0.0987    2.0934    6.0602 N.ar      1 <0>        -0.5651
     18 N3         -0.7445    2.4692    8.1934 N.pl3     1 <0>        -0.7062
     19 C16        -1.6935    2.1336    9.2578 C.3       1 <0>         0.1451
     20 C17        -1.4568    3.0503   10.4598 C.3       1 <0>        -0.1652
     21 C18        -2.4479    2.6998   11.5714 C.3       1 <0>        -0.0037
     22 N4         -2.2207    3.5799   12.7254 N.4       1 <0>        -0.3851
     23 C19        -0.8917    3.3116   13.2920 C.3       1 <0>        -0.0492
     24 C20        -0.6573    4.2299   14.4940 C.3       1 <0>         0.0361
     25 O1         -1.6921    4.0178   15.4584 O.3       1 <0>        -0.3562
     26 C21        -3.0085    4.2437   14.9466 C.3       1 <0>         0.0355
     27 C22        -3.2473    3.3254   13.7454 C.3       1 <0>        -0.0434
     28 C23         0.0613   -4.2589   -0.0337 C.2       1 <0>         0.5633
     29 O2          0.0673   -4.8792    1.0117 O.2       1 <0>        -0.5117
     30 N5          0.0613   -4.9189   -1.2088 N.am      1 <0>        -0.6635
     31 C24         0.1847   -6.3117   -1.2285 C.ar      1 <0>         0.1455
     32 C25         0.8044   -6.9706   -0.1742 C.ar      1 <0>        -0.0949
     33 C26         0.9243   -8.3461   -0.1966 C.ar      1 <0>        -0.1035
     34 C27         0.4282   -9.0677   -1.2671 C.ar      1 <0>        -0.0838
     35 C28        -0.1891   -8.4150   -2.3181 C.ar      1 <0>        -0.1654
     36 C29        -0.3170   -7.0397   -2.2994 C.ar      1 <0>        -0.0635
     37 C30        -0.9951   -6.3296   -3.4427 C.3       1 <0>        -0.1396
     38 C31        -0.7282   -9.2053   -3.4825 C.3       1 <0>         0.5112
     39 F1         -0.4873  -10.5674   -3.2730 F         1 <0>        -0.1740
     40 F2         -2.1055   -8.9875   -3.5962 F         1 <0>        -0.1742
     41 F3         -0.0924   -8.7948   -4.6590 F         1 <0>        -0.1742
     42 H1          1.0563    1.8726    0.0029 H         1 <0>         0.0803
     43 H2         -0.4919    1.8686   -0.8754 H         1 <0>         0.0749
     44 H3         -0.4783    1.8593    0.9045 H         1 <0>         0.0736
     45 H4          0.0335   -0.1376   -2.1305 H         1 <0>         0.1368
     46 H5          0.0475   -2.5945   -2.1583 H         1 <0>         0.1284
     47 H6          0.0591   -2.6439    2.1290 H         1 <0>         0.1406
     48 H7          1.6859    1.3155    1.9182 H         1 <0>         0.1382
     49 H8          1.7312    2.5489    4.0142 H         1 <0>         0.1418
     50 H9         -1.5668   -1.0978    3.3160 H         1 <0>         0.1396
     51 H10        -2.4664   -0.6926    5.6263 H         1 <0>         0.1812
     52 H11        -0.1001    3.1822    8.3252 H         1 <0>         0.4155
     53 H12        -2.7117    2.2687    8.8928 H         1 <0>         0.0773
     54 H13        -1.5501    1.0958    9.5586 H         1 <0>         0.0771
     55 H14        -0.4387    2.9152   10.8248 H         1 <0>         0.0947
     56 H15        -1.6003    4.0881   10.1590 H         1 <0>         0.0955
     57 H16        -3.4661    2.8349   11.2064 H         1 <0>         0.1383
     58 H17        -2.3045    1.6620   11.8722 H         1 <0>         0.1361
     59 H18        -0.8365    2.2714   13.6129 H         1 <0>         0.1406
     60 H19        -0.1293    3.5002   12.5362 H         1 <0>         0.1429
     61 H20         0.3100    4.0030   14.9423 H         1 <0>         0.1423
     62 H21        -0.6725    5.2694   14.1664 H         1 <0>         0.0814
     63 H22        -3.7428    4.0267   15.7223 H         1 <0>         0.1429
     64 H23        -3.1042    5.2836   14.6344 H         1 <0>         0.0815
     65 H24        -4.2336    3.5242   13.3261 H         1 <0>         0.1440
     66 H25        -3.1912    2.2852   14.0661 H         1 <0>         0.1402
     67 H26        -0.0244   -4.4277   -2.0409 H         1 <0>         0.4131
     68 H27         1.1923   -6.4077    0.6618 H         1 <0>         0.1548
     69 H28         1.4063   -8.8589    0.6226 H         1 <0>         0.1404
     70 H29         0.5235  -10.1434   -1.2823 H         1 <0>         0.1416
     71 H30        -0.2551   -6.0719   -4.2004 H         1 <0>         0.0855
     72 H31        -1.7501   -6.9831   -3.8797 H         1 <0>         0.0845
     73 H32        -1.4704   -5.4203   -3.0749 H         1 <0>         0.0733
     74 H33        -2.2721    4.5431   12.4293 H         1 <0>         0.4234
@<TRIPOS>BOND
     1    1    2 1
     2    1   42 1
     3    1   43 1
     4    1   44 1
     5    2    7 ar
     6    2    3 ar
     7    3    4 ar
     8    3   45 1
     9    4    5 ar
    10    4   46 1
    11    5    6 ar
    12    5   28 1
    13    6    7 ar
    14    6   47 1
    15    7    8 1
    16    8   13 ar
    17    8    9 ar
    18    9   10 ar
    19    9   48 1
    20   10   11 ar
    21   10   49 1
    22   11   17 ar
    23   11   12 ar
    24   12   13 ar
    25   12   14 ar
    26   13   50 1
    27   14   15 ar
    28   14   51 1
    29   15   16 ar
    30   16   17 ar
    31   16   18 1
    32   18   19 1
    33   18   52 1
    34   19   20 1
    35   19   53 1
    36   19   54 1
    37   20   21 1
    38   20   55 1
    39   20   56 1
    40   21   22 1
    41   21   57 1
    42   21   58 1
    43   22   27 1
    44   22   23 1
    45   22   74 1
    46   23   24 1
    47   23   59 1
    48   23   60 1
    49   24   25 1
    50   24   61 1
    51   24   62 1
    52   25   26 1
    53   26   27 1
    54   26   63 1
    55   26   64 1
    56   27   65 1
    57   27   66 1
    58   28   29 2
    59   28   30 am
    60   30   31 1
    61   30   67 1
    62   31   36 ar
    63   31   32 ar
    64   32   33 ar
    65   32   68 1
    66   33   34 ar
    67   33   69 1
    68   34   35 ar
    69   34   70 1
    70   35   36 ar
    71   35   38 1
    72   36   37 1
    73   37   71 1
    74   37   72 1
    75   37   73 1
    76   38   39 1
    77   38   40 1
    78   38   41 1
@<TRIPOS>MOLECULE
CHEMBL371373
   54    57     0     0     0
SMALL
USER_CHARGES

@<TRIPOS>ATOM
      1 C1         -0.4935    1.9842   -0.6284 C.3       1 <0>        -0.1529
      2 C2         -0.5085    0.5054   -1.0204 C.3       1 <0>        -0.0283
      3 C3         -1.8678   -0.0773   -0.7309 C.2       1 <0>         0.1691
      4 N1         -2.8775   -0.1199   -1.5533 N.2       1 <0>        -0.2829
      5 N2         -3.8786   -0.6864   -0.9769 N.2       1 <0>        -0.2657
      6 C4         -3.5387   -1.0279    0.2442 C.2       1 <0>         0.2449
      7 O1         -2.2562   -0.6527    0.4212 O.3       1 <0>        -0.2202
      8 C5         -4.4002   -1.7027    1.2380 C.2       1 <0>        -0.0969
      9 C6         -4.0432   -2.0563    2.5267 C.2       1 <0>         0.1190
     10 N3         -5.0940   -2.6478    3.1195 N.pl3     1 <0>        -0.2296
     11 C7         -6.1489   -2.6878    2.2268 C.2       1 <0>        -0.1094
     12 C8         -5.7382   -2.0990    1.0503 C.2       1 <0>        -0.0123
     13 C9         -6.5620   -1.9174   -0.1985 C.3       1 <0>        -0.0229
     14 C10        -6.6567   -0.4278   -0.5348 C.3       1 <0>        -0.1581
     15 C11        -5.8989   -2.6611   -1.3596 C.3       1 <0>        -0.1568
     16 C12        -7.3674   -3.2744    2.6473 C.2       1 <0>         0.5395
     17 N4         -7.4593   -3.7630    3.8728 N.2       1 <0>        -0.6229
     18 C13        -6.4339   -3.7169    4.7214 C.2       1 <0>         0.3351
     19 N5         -5.2847   -3.1907    4.3988 N.2       1 <0>        -0.3419
     20 N6         -8.4464   -3.3350    1.7884 N.pl3     1 <0>        -0.6145
     21 C14        -9.6857   -3.7937    2.2522 C.ar      1 <0>         0.0993
     22 C15        -9.9646   -3.7806    3.6077 C.ar      1 <0>        -0.0422
     23 C16       -11.2018   -4.2384    4.0668 C.ar      1 <0>        -0.1540
     24 C17       -12.1517   -4.7075    3.1531 C.ar      1 <0>         0.1852
     25 C18       -11.8633   -4.7164    1.8014 C.ar      1 <0>        -0.1741
     26 C19       -10.6389   -4.2574    1.3484 C.ar      1 <0>         0.1353
     27 F1        -10.3652   -4.2635    0.0254 F         1 <0>        -0.1187
     28 F2        -13.3498   -5.1519    3.5917 F         1 <0>        -0.0993
     29 C20       -11.5057   -4.2277    5.5109 C.2       1 <0>         0.5753
     30 O2        -12.5833   -4.6267    5.9084 O.2       1 <0>        -0.4975
     31 N7        -10.5888   -3.7758    6.3892 N.am      1 <0>        -0.5939
     32 O3        -10.8804   -3.7655    7.7748 O.3       1 <0>        -0.1369
     33 C21        -9.8193   -3.2612    8.5884 C.3       1 <0>        -0.0032
     34 H1          0.4897    2.4057   -0.8378 H         1 <0>         0.0790
     35 H2         -1.2486    2.5203   -1.2034 H         1 <0>         0.0664
     36 H3         -0.7109    2.0803    0.4354 H         1 <0>         0.0608
     37 H4         -0.2911    0.4093   -2.0842 H         1 <0>         0.1141
     38 H5          0.2466   -0.0306   -0.4454 H         1 <0>         0.0989
     39 H6         -3.0786   -1.8854    2.9814 H         1 <0>         0.1952
     40 H7         -7.5627   -2.3173   -0.0350 H         1 <0>         0.0595
     41 H8         -5.6560   -0.0279   -0.6983 H         1 <0>         0.0919
     42 H9         -7.2526   -0.2964   -1.4380 H         1 <0>         0.0661
     43 H10        -7.1291    0.1021    0.2924 H         1 <0>         0.0487
     44 H11        -5.8314   -3.7223   -1.1200 H         1 <0>         0.0493
     45 H12        -6.4948   -2.5297   -2.2628 H         1 <0>         0.0668
     46 H13        -4.8982   -2.2612   -1.5231 H         1 <0>         0.0891
     47 H14        -6.5583   -4.1294    5.7117 H         1 <0>         0.2257
     48 H15        -8.3462   -3.0599    0.8636 H         1 <0>         0.4310
     49 H16        -9.2275   -3.4177    4.3086 H         1 <0>         0.1816
     50 H17       -12.5969   -5.0790    1.0966 H         1 <0>         0.1683
     51 H18        -9.7291   -3.4575    6.0721 H         1 <0>         0.4067
     52 H19       -10.1209   -3.2863    9.6355 H         1 <0>         0.1167
     53 H20        -8.9314   -3.8784    8.4511 H         1 <0>         0.0588
     54 H21        -9.5962   -2.2343    8.2990 H         1 <0>         0.0573
@<TRIPOS>BOND
     1    1    2 1
     2    1   34 1
     3    1   35 1
     4    1   36 1
     5    2    3 1
     6    2   37 1
     7    2   38 1
     8    3    7 1
     9    3    4 2
    10    4    5 1
    11    5    6 2
    12    6    7 1
    13    6    8 1
    14    8   12 1
    15    8    9 2
    16    9   10 1
    17    9   39 1
    18   10   19 1
    19   10   11 1
    20   11   12 2
    21   11   16 1
    22   12   13 1
    23   13   14 1
    24   13   15 1
    25   13   40 1
    26   14   41 1
    27   14   42 1
    28   14   43 1
    29   15   44 1
    30   15   45 1
    31   15   46 1
    32   16   17 2
    33   16   20 1
    34   17   18 1
    35   18   19 2
    36   18   47 1
    37   20   21 1
    38   20   48 1
    39   21   26 ar
    40   21   22 ar
    41   22   23 ar
    42   22   49 1
    43   23   24 ar
    44   23   29 1
    45   24   25 ar
    46   24   28 1
    47   25   26 ar
    48   25   50 1
    49   26   27 1
    50   29   30 2
    51   29   31 am
    52   31   32 1
    53   31   51 1
    54   32   33 1
    55   33   52 1
    56   33   53 1
    57   33   54 1
@<TRIPOS>MOLECULE
CHEMBL153843
   43    45     0     0     0
SMALL
USER_CHARGES

@<TRIPOS>ATOM
      1 C1         -0.0045    1.2832    0.0417 C.ar      1 <0>        -0.1891
      2 C2          1.1419    2.0392   -0.1470 C.ar      1 <0>        -0.0333
      3 C3          2.3582    1.4232   -0.3576 C.ar      1 <0>        -0.2111
      4 C4          2.4413    0.0364   -0.3818 C.ar      1 <0>         0.2834
      5 C5          1.2824   -0.7320   -0.1905 C.ar      1 <0>        -0.2347
      6 C6          0.0579   -0.0927    0.0216 C.ar      1 <0>        -0.0327
      7 C7          1.3562   -2.2040   -0.2143 C.2       1 <0>         0.5756
      8 O1          2.4362   -2.7575   -0.2927 O.2       1 <0>        -0.5299
      9 N1          0.2267   -2.9365   -0.1490 N.am      1 <0>        -0.6686
     10 C8          0.3013   -4.3304   -0.0623 C.ar      1 <0>         0.1485
     11 C9         -0.6737   -5.1182   -0.6610 C.ar      1 <0>        -0.1137
     12 C10        -0.5972   -6.4941   -0.5734 C.ar      1 <0>        -0.0975
     13 C11         0.4487   -7.0880    0.1094 C.ar      1 <0>        -0.0883
     14 C12         1.4207   -6.3068    0.7065 C.ar      1 <0>        -0.1623
     15 C13         1.3532   -4.9300    0.6178 C.ar      1 <0>        -0.0726
     16 C14         2.5585   -6.9582    1.4495 C.3       1 <0>         0.5089
     17 F1          2.4144   -8.3487    1.3970 F         1 <0>        -0.1757
     18 F2          3.7722   -6.5925    0.8575 F         1 <0>        -0.1729
     19 F3          2.5452   -6.5381    2.7839 F         1 <0>        -0.1759
     20 N2          3.6644   -0.5861   -0.5945 N.pl3     1 <0>        -0.7211
     21 C15         4.8463    0.2145   -0.9234 C.3       1 <0>         0.1558
     22 C16         6.0347   -0.6947   -1.1034 C.ar      1 <0>        -0.0633
     23 C17         6.8445   -1.0254   -0.0277 C.ar      1 <0>        -0.1533
     24 C18         7.9257   -1.8620   -0.2308 C.ar      1 <0>         0.0999
     25 N3          8.1903   -2.3432   -1.4298 N.ar      1 <0>        -0.4782
     26 C19         7.4421   -2.0500   -2.4753 C.ar      1 <0>         0.0997
     27 C20         6.3408   -1.2248   -2.3474 C.ar      1 <0>        -0.1530
     28 H1         -0.9509    1.7755    0.2100 H         1 <0>         0.1274
     29 H2          1.0825    3.1174   -0.1294 H         1 <0>         0.1286
     30 H3          3.2467    2.0194   -0.5042 H         1 <0>         0.1298
     31 H4         -0.8385   -0.6768    0.1691 H         1 <0>         0.1236
     32 H5         -0.6379   -2.4969   -0.1623 H         1 <0>         0.4152
     33 H6         -1.4908   -4.6550   -1.1941 H         1 <0>         0.1372
     34 H7         -1.3550   -7.1072   -1.0384 H         1 <0>         0.1417
     35 H8          0.5060   -8.1644    0.1768 H         1 <0>         0.1415
     36 H9          2.1154   -4.3204    1.0802 H         1 <0>         0.1454
     37 H10         3.7360   -1.5510   -0.5253 H         1 <0>         0.4213
     38 H11         4.6668    0.7649   -1.8470 H         1 <0>         0.0766
     39 H12         5.0457    0.9173   -0.1145 H         1 <0>         0.0768
     40 H13         6.6334   -0.6340    0.9565 H         1 <0>         0.1367
     41 H14         8.5614   -2.1245    0.6019 H         1 <0>         0.1589
     42 H15         7.6903   -2.4629   -3.4419 H         1 <0>         0.1586
     43 H16         5.7289   -0.9924   -3.2065 H         1 <0>         0.1361
@<TRIPOS>BOND
     1    1    6 ar
     2    1    2 ar
     3    1   28 1
     4    2    3 ar
     5    2   29 1
     6    3    4 ar
     7    3   30 1
     8    4    5 ar
     9    4   20 1
    10    5    6 ar
    11    5    7 1
    12    6   31 1
    13    7    8 2
    14    7    9 am
    15    9   10 1
    16    9   32 1
    17   10   15 ar
    18   10   11 ar
    19   11   12 ar
    20   11   33 1
    21   12   13 ar
    22   12   34 1
    23   13   14 ar
    24   13   35 1
    25   14   15 ar
    26   14   16 1
    27   15   36 1
    28   16   17 1
    29   16   18 1
    30   16   19 1
    31   20   21 1
    32   20   37 1
    33   21   22 1
    34   21   38 1
    35   21   39 1
    36   22   27 ar
    37   22   23 ar
    38   23   24 ar
    39   23   40 1
    40   24   25 ar
    41   24   41 1
    42   25   26 ar
    43   26   27 ar
    44   26   42 1
    45   27   43 1
@<TRIPOS>MOLECULE
CHEMBL404571
   45    48     0     0     0
SMALL
USER_CHARGES

@<TRIPOS>ATOM
      1 C1          2.9914    0.4348   -0.1001 C.ar      1 <0>        -0.0971
      2 C2          2.3457    0.8264    1.0586 C.ar      1 <0>        -0.0881
      3 C3          1.5440   -0.0684    1.7430 C.ar      1 <0>        -0.1613
      4 C4          1.3852   -1.3567    1.2708 C.ar      1 <0>        -0.0721
      5 C5          2.0316   -1.7528    0.1075 C.ar      1 <0>         0.1630
      6 C6          2.8367   -0.8518   -0.5773 C.ar      1 <0>        -0.1134
      7 N1          1.8731   -3.0574   -0.3732 N.am      1 <0>        -0.6801
      8 C7          0.7036   -3.7035   -0.1959 C.2       1 <0>         0.7032
      9 O1         -0.2441   -3.1214    0.2952 O.2       1 <0>        -0.5466
     10 N2          0.5848   -4.9949   -0.5630 N.am      1 <0>        -0.6784
     11 C8         -0.6554   -5.6332   -0.4810 C.ar      1 <0>         0.1755
     12 C9         -1.8229   -4.9124   -0.7054 C.ar      1 <0>        -0.1204
     13 C10        -3.0474   -5.5392   -0.6247 C.ar      1 <0>        -0.0524
     14 C11        -3.1148   -6.8989   -0.3179 C.ar      1 <0>        -0.0681
     15 C12        -1.9414   -7.6199   -0.0936 C.ar      1 <0>        -0.0831
     16 C13        -0.7193   -6.9891   -0.1807 C.ar      1 <0>        -0.1476
     17 C14        -4.4290   -7.5750   -0.2300 C.ar      1 <0>         0.2664
     18 C15        -4.7065   -8.4403    0.8425 C.ar      1 <0>        -0.2410
     19 C16        -5.9668   -9.0701    0.8995 C.ar      1 <0>         0.1821
     20 C17        -6.8853   -8.8035   -0.1181 C.ar      1 <0>        -0.2038
     21 C18        -6.5340   -7.9492   -1.1249 C.ar      1 <0>         0.1393
     22 N3         -5.3495   -7.3622   -1.1593 N.ar      1 <0>        -0.5067
     23 N4         -5.9735   -9.8438    2.0235 N.pl3     1 <0>        -0.4952
     24 H1         -6.7136  -10.3954    2.3215 H         1 <0>         0.4445
     25 N5         -4.7432   -9.7158    2.6779 N.2       1 <0>        -0.3130
     26 C19        -3.9671   -8.8977    2.0152 C.2       1 <0>         0.3787
     27 N6         -2.6658   -8.5287    2.3659 N.pl3     1 <0>        -0.8361
     28 C20         0.8432    0.3623    3.0057 C.3       1 <0>         0.5089
     29 F1          1.1555    1.6981    3.2800 F         1 <0>        -0.1760
     30 F2         -0.5397    0.2313    2.8393 F         1 <0>        -0.1720
     31 F3          1.2632   -0.4429    4.0699 F         1 <0>        -0.1761
     32 H2          3.6136    1.1372   -0.6346 H         1 <0>         0.1419
     33 H3          2.4684    1.8331    1.4299 H         1 <0>         0.1415
     34 H4          0.7591   -2.0553    1.8059 H         1 <0>         0.1479
     35 H5          3.3408   -1.1569   -1.4824 H         1 <0>         0.1372
     36 H6          2.6049   -3.4967   -0.8341 H         1 <0>         0.4130
     37 H7          1.3602   -5.4811   -0.8841 H         1 <0>         0.4113
     38 H8         -1.7701   -3.8602   -0.9428 H         1 <0>         0.1420
     39 H9         -3.9540   -4.9787   -0.7984 H         1 <0>         0.1345
     40 H10        -1.9907   -8.6723    0.1441 H         1 <0>         0.1374
     41 H11         0.1894   -7.5476   -0.0116 H         1 <0>         0.1335
     42 H12        -7.8607   -9.2670   -0.1096 H         1 <0>         0.1401
     43 H13        -7.2450   -7.7437   -1.9114 H         1 <0>         0.1649
     44 H14        -2.2713   -7.7262    1.9902 H         1 <0>         0.4144
     45 H15        -2.1570   -9.0752    2.9851 H         1 <0>         0.4074
@<TRIPOS>BOND
     1    1    6 ar
     2    1    2 ar
     3    1   32 1
     4    2    3 ar
     5    2   33 1
     6    3    4 ar
     7    3   28 1
     8    4    5 ar
     9    4   34 1
    10    5    6 ar
    11    5    7 1
    12    6   35 1
    13    7    8 am
    14    7   36 1
    15    8    9 2
    16    8   10 am
    17   10   11 1
    18   10   37 1
    19   11   16 ar
    20   11   12 ar
    21   12   13 ar
    22   12   38 1
    23   13   14 ar
    24   13   39 1
    25   14   15 ar
    26   14   17 1
    27   15   16 ar
    28   15   40 1
    29   16   41 1
    30   17   22 ar
    31   17   18 ar
    32   18   26 1
    33   18   19 ar
    34   19   20 ar
    35   19   23 1
    36   20   21 ar
    37   20   42 1
    38   21   22 ar
    39   21   43 1
    40   23   24 1
    41   23   25 1
    42   25   26 2
    43   26   27 1
    44   27   44 1
    45   27   45 1
    46   28   29 1
    47   28   30 1
    48   28   31 1
@<TRIPOS>MOLECULE
CHEMBL404571__1
   45    48     0     0     0
SMALL
USER_CHARGES

@<TRIPOS>ATOM
      1 C1          3.0431    0.3776   -0.1915 C.ar      1 <0>        -0.0969
      2 C2          2.4001    0.7849    0.9633 C.ar      1 <0>        -0.0879
      3 C3          1.5935   -0.0980    1.6571 C.ar      1 <0>        -0.1614
      4 C4          1.4270   -1.3902    1.1983 C.ar      1 <0>        -0.0721
      5 C5          2.0708   -1.8021    0.0391 C.ar      1 <0>         0.1628
      6 C6          2.8807   -0.9129   -0.6554 C.ar      1 <0>        -0.1132
      7 N1          1.9045   -3.1107   -0.4281 N.am      1 <0>        -0.6800
      8 C7          0.7312   -3.7479   -0.2442 C.2       1 <0>         0.7030
      9 O1         -0.2132   -3.1550    0.2405 O.2       1 <0>        -0.5467
     10 N2          0.6048   -5.0424   -0.5975 N.am      1 <0>        -0.6784
     11 C8         -0.6387   -5.6722   -0.5091 C.ar      1 <0>         0.1735
     12 C9         -1.8020   -4.9468   -0.7415 C.ar      1 <0>        -0.1190
     13 C10        -3.0300   -5.5653   -0.6550 C.ar      1 <0>        -0.0520
     14 C11        -3.1057   -6.9217   -0.3336 C.ar      1 <0>        -0.0661
     15 C12        -1.9361   -7.6473   -0.1008 C.ar      1 <0>        -0.0897
     16 C13        -0.7107   -7.0247   -0.1943 C.ar      1 <0>        -0.1478
     17 C14        -4.4231   -7.5887   -0.2395 C.ar      1 <0>         0.2972
     18 C15        -4.7097   -8.4461    0.8470 C.ar      1 <0>        -0.3076
     19 C16        -6.0374   -9.0847    0.8923 C.ar      1 <0>         0.1540
     20 C17        -6.9370   -8.7932   -0.1610 C.ar      1 <0>        -0.1725
     21 C18        -6.5387   -7.9513   -1.1482 C.ar      1 <0>         0.1193
     22 N3         -5.3406   -7.3821   -1.1678 N.ar      1 <0>        -0.5221
     23 N4         -6.0688   -9.8257    1.9787 N.2       1 <0>        -0.3126
     24 H1         -4.6196  -10.1645    3.4770 H         1 <0>         0.4415
     25 N5         -4.8447   -9.7129    2.6486 N.pl3     1 <0>        -0.4586
     26 C19        -4.0270   -8.8867    1.9733 C.2       1 <0>         0.4269
     27 N6         -2.7370   -8.5380    2.3355 N.pl3     1 <0>        -0.8413
     28 C20         0.8957    0.3498    2.9155 C.3       1 <0>         0.5089
     29 F1          1.2158    1.6866    3.1758 F         1 <0>        -0.1759
     30 F2         -0.4880    0.2252    2.7509 F         1 <0>        -0.1720
     31 F3          1.3113   -0.4467    3.9879 F         1 <0>        -0.1764
     32 H2          3.6692    1.0709   -0.7335 H         1 <0>         0.1421
     33 H3          2.5287    1.7948    1.3240 H         1 <0>         0.1416
     34 H4          0.7971   -2.0796    1.7410 H         1 <0>         0.1476
     35 H5          3.3827   -1.2303   -1.5574 H         1 <0>         0.1373
     36 H6          2.6337   -3.5591   -0.8842 H         1 <0>         0.4130
     37 H7          1.3775   -5.5366   -0.9132 H         1 <0>         0.4111
     38 H8         -1.7428   -3.8974   -0.9898 H         1 <0>         0.1421
     39 H9         -3.9332   -5.0013   -0.8353 H         1 <0>         0.1359
     40 H10        -1.9917   -8.6967    0.1484 H         1 <0>         0.1353
     41 H11         0.1947   -7.5866   -0.0186 H         1 <0>         0.1323
     42 H12        -7.9231   -9.2334   -0.1790 H         1 <0>         0.1381
     43 H13        -7.2284   -7.7318   -1.9498 H         1 <0>         0.1569
     44 H14        -2.3299   -7.7376    1.9687 H         1 <0>         0.4234
     45 H15        -2.2403   -9.0940    2.9559 H         1 <0>         0.4062
@<TRIPOS>BOND
     1    1    6 ar
     2    1    2 ar
     3    1   32 1
     4    2    3 ar
     5    2   33 1
     6    3    4 ar
     7    3   28 1
     8    4    5 ar
     9    4   34 1
    10    5    6 ar
    11    5    7 1
    12    6   35 1
    13    7    8 am
    14    7   36 1
    15    8    9 2
    16    8   10 am
    17   10   11 1
    18   10   37 1
    19   11   16 ar
    20   11   12 ar
    21   12   13 ar
    22   12   38 1
    23   13   14 ar
    24   13   39 1
    25   14   15 ar
    26   14   17 1
    27   15   16 ar
    28   15   40 1
    29   16   41 1
    30   17   22 ar
    31   17   18 ar
    32   18   19 ar
    33   18   26 2
    34   19   20 ar
    35   19   23 2
    36   20   21 ar
    37   20   42 1
    38   21   22 ar
    39   21   43 1
    40   23   25 1
    41   24   25 1
    42   25   26 1
    43   26   27 1
    44   27   44 1
    45   27   45 1
    46   28   29 1
    47   28   30 1
    48   28   31 1
@<TRIPOS>MOLECULE
CHEMBL597596
   42    45     0     0     0
SMALL
USER_CHARGES

@<TRIPOS>ATOM
      1 C1         -0.7034    2.0330   -1.0085 C.3       1 <0>         0.0238
      2 O1         -0.6419    0.6184   -0.8156 O.3       1 <0>        -0.3103
      3 C2          0.0792   -0.0962   -1.7177 C.ar      1 <0>         0.1753
      4 C3          0.7210    0.5530   -2.7664 C.ar      1 <0>        -0.2211
      5 C4          1.4477   -0.1736   -3.6782 C.ar      1 <0>        -0.0072
      6 C5          1.5521   -1.5693   -3.5633 C.ar      1 <0>        -0.1186
      7 C6          0.9144   -2.2191   -2.5131 C.ar      1 <0>         0.2264
      8 C7          0.1805   -1.4688   -1.5908 C.ar      1 <0>        -0.1879
      9 N1          0.9644   -3.5871   -2.3006 N.am      1 <0>        -0.6619
     10 C8          0.8670   -4.5319   -3.2296 C.2       1 <0>         0.5294
     11 O2          0.8838   -5.6963   -2.8906 O.2       1 <0>        -0.5200
     12 C9          0.7359   -4.1972   -4.6900 C.3       1 <0>        -0.0816
     13 C10         1.9828   -3.4856   -5.1381 C.ar      1 <0>        -0.2388
     14 C11         2.3503   -2.2634   -4.5953 C.ar      1 <0>         0.2779
     15 N2          3.4775   -1.6845   -5.0265 N.ar      1 <0>        -0.5524
     16 C12         4.2199   -2.2639   -5.9548 C.ar      1 <0>         0.5648
     17 N3          3.8842   -3.4275   -6.4927 N.ar      1 <0>        -0.5523
     18 C13         2.7840   -4.0585   -6.1102 C.ar      1 <0>         0.2121
     19 N4          5.3805   -1.6368   -6.3770 N.pl3     1 <0>        -0.6351
     20 C14         6.1192   -2.1726   -7.4392 C.ar      1 <0>         0.1709
     21 C15         5.4680   -2.8183   -8.4822 C.ar      1 <0>        -0.0942
     22 C16         6.1967   -3.3462   -9.5299 C.ar      1 <0>        -0.1103
     23 C17         7.5788   -3.2319   -9.5411 C.ar      1 <0>         0.0992
     24 C18         8.2309   -2.5872   -8.4992 C.ar      1 <0>        -0.0415
     25 C19         7.5024   -2.0535   -7.4530 C.ar      1 <0>        -0.1277
     26 Cl1         9.9610   -2.4456   -8.5134 Cl        1 <0>        -0.0512
     27 O3          8.2955   -3.7521  -10.5734 O.3       1 <0>        -0.4858
     28 H1          0.3037    2.4485   -0.9735 H         1 <0>         0.0606
     29 H2         -1.1518    2.2483   -1.9784 H         1 <0>         0.0606
     30 H3         -1.3089    2.4811   -0.2207 H         1 <0>         0.1053
     31 H4          0.6480    1.6261   -2.8642 H         1 <0>         0.1399
     32 H5          1.9438    0.3341   -4.4922 H         1 <0>         0.1396
     33 H6         -0.3169   -1.9675   -0.7721 H         1 <0>         0.1443
     34 H7          1.0823   -3.8841   -1.3848 H         1 <0>         0.4121
     35 H8          0.6121   -5.1147   -5.2653 H         1 <0>         0.1203
     36 H9         -0.1281   -3.5500   -4.8403 H         1 <0>         0.1088
     37 H10         2.5159   -5.0073   -6.5511 H         1 <0>         0.1801
     38 H11         5.6816   -0.8265   -5.9369 H         1 <0>         0.4266
     39 H12         4.3918   -2.9079   -8.4738 H         1 <0>         0.1449
     40 H13         5.6900   -3.8485  -10.3406 H         1 <0>         0.1428
     41 H14         8.0091   -1.5479   -6.6443 H         1 <0>         0.1402
     42 H15         8.4358   -3.1355  -11.3050 H         1 <0>         0.3920
@<TRIPOS>BOND
     1    1    2 1
     2    1   28 1
     3    1   29 1
     4    1   30 1
     5    2    3 1
     6    3    8 ar
     7    3    4 ar
     8    4    5 ar
     9    4   31 1
    10    5    6 ar
    11    5   32 1
    12    6   14 1
    13    6    7 ar
    14    7    8 ar
    15    7    9 1
    16    8   33 1
    17    9   10 am
    18    9   34 1
    19   10   11 2
    20   10   12 1
    21   12   13 1
    22   12   35 1
    23   12   36 1
    24   13   18 ar
    25   13   14 ar
    26   14   15 ar
    27   15   16 ar
    28   16   17 ar
    29   16   19 1
    30   17   18 ar
    31   18   37 1
    32   19   20 1
    33   19   38 1
    34   20   25 ar
    35   20   21 ar
    36   21   22 ar
    37   21   39 1
    38   22   23 ar
    39   22   40 1
    40   23   24 ar
    41   23   27 1
    42   24   25 ar
    43   24   26 1
    44   25   41 1
    45   27   42 1
@<TRIPOS>MOLECULE
CHEMBL269915
   56    60     0     0     0
SMALL
USER_CHARGES

@<TRIPOS>ATOM
      1 C1         -1.2803    0.0951   -1.5140 C.3       1 <0>         0.0149
      2 O1         -0.4240   -0.5716   -0.5844 O.3       1 <0>        -0.2865
      3 C2          0.9144   -0.4918   -0.8110 C.ar      1 <0>         0.1343
      4 C3          1.3768    0.2092   -1.8871 C.ar      1 <0>        -0.1360
      5 C4          2.7577    0.2919   -2.1205 C.ar      1 <0>        -0.0901
      6 C5          3.2731    1.0088   -3.2236 C.ar      1 <0>         0.2833
      7 C6          4.6464    1.0463   -3.3887 C.ar      1 <0>        -0.2638
      8 C7          5.4675    0.3892   -2.4810 C.ar      1 <0>         0.2259
      9 N1          4.9783   -0.2743   -1.4598 N.ar      1 <0>        -0.4818
     10 C8          3.6606   -0.3517   -1.2393 C.ar      1 <0>         0.1817
     11 C9          3.1539   -1.0658   -0.1408 C.ar      1 <0>        -0.2357
     12 C10         1.8060   -1.1255    0.0663 C.ar      1 <0>         0.2160
     13 O2          1.3215   -1.8126    1.1338 O.3       1 <0>        -0.2777
     14 C11         2.2784   -2.4370    1.9920 C.3       1 <0>         0.0117
     15 O3          2.4472    1.6405   -4.0940 O.3       1 <0>        -0.2126
     16 C12         3.0098    2.3927   -5.0758 C.ar      1 <0>         0.0440
     17 C13         3.5889    1.7632   -6.1816 C.ar      1 <0>        -0.1357
     18 C14         4.1599    2.4912   -7.1804 C.ar      1 <0>        -0.0828
     19 C15         4.1697    3.8909   -7.1033 C.ar      1 <0>        -0.0022
     20 C16         3.5842    4.5332   -5.9849 C.ar      1 <0>        -0.0524
     21 C17         2.9977    3.7550   -4.9728 C.ar      1 <0>        -0.0792
     22 C18         3.5938    5.9370   -5.9082 C.ar      1 <0>        -0.0674
     23 C19         4.1631    6.6726   -6.9042 C.ar      1 <0>        -0.1152
     24 C20         4.7417    6.0610   -8.0090 C.ar      1 <0>        -0.0550
     25 C21         4.7553    4.6786   -8.1260 C.ar      1 <0>        -0.1250
     26 C22         5.3720    4.0360   -9.3008 C.2       1 <0>         0.5554
     27 O4          5.2826    2.8329   -9.4526 O.2       1 <0>        -0.4621
     28 N2          6.0349    4.7822  -10.2065 N.am      1 <0>        -0.6547
     29 C23         6.7086    4.1651  -11.2581 C.ar      1 <0>         0.3523
     30 C24         7.4784    4.9310  -12.1270 C.ar      1 <0>        -0.2026
     31 C25         8.1422    4.3054  -13.1672 C.ar      1 <0>        -0.0457
     32 C26         8.0130    2.9297  -13.3034 C.ar      1 <0>        -0.1968
     33 C27         7.2319    2.2317  -12.4038 C.ar      1 <0>         0.1310
     34 N3          6.6146    2.8545  -11.4181 N.ar      1 <0>        -0.4778
     35 H1         -1.0478    1.1600   -1.5230 H         1 <0>         0.0667
     36 H2         -1.1268   -0.3187   -2.5107 H         1 <0>         0.0673
     37 H3         -2.3195   -0.0474   -1.2176 H         1 <0>         0.1186
     38 H4          0.6832    0.6973   -2.5557 H         1 <0>         0.1725
     39 H5          5.0782    1.5838   -4.2200 H         1 <0>         0.1853
     40 H6          6.5379    0.4251   -2.6197 H         1 <0>         0.2123
     41 H7          3.8291   -1.5621    0.5405 H         1 <0>         0.1712
     42 H8          2.9422   -1.6792    2.4082 H         1 <0>         0.0692
     43 H9          1.7599   -2.9502    2.8019 H         1 <0>         0.1214
     44 H10         2.8631   -3.1579    1.4206 H         1 <0>         0.0693
     45 H11         3.5836    0.6850   -6.2443 H         1 <0>         0.1384
     46 H12         4.6041    1.9921   -8.0289 H         1 <0>         0.1843
     47 H13         2.5434    4.2308   -4.1163 H         1 <0>         0.1462
     48 H14         3.1489    6.4333   -5.0584 H         1 <0>         0.1413
     49 H15         4.1640    7.7503   -6.8335 H         1 <0>         0.1428
     50 H16         5.1857    6.6676   -8.7844 H         1 <0>         0.1357
     51 H17         6.0429    5.7488  -10.1261 H         1 <0>         0.4177
     52 H18         7.5566    5.9996  -11.9918 H         1 <0>         0.1375
     53 H19         8.7470    4.8743  -13.8578 H         1 <0>         0.1418
     54 H20         8.5179    2.4110  -14.1049 H         1 <0>         0.1396
     55 H21         7.1285    1.1615  -12.5059 H         1 <0>         0.1616
     56 H22         5.5870   -0.7198   -0.8499 H         1 <0>         0.4473
@<TRIPOS>BOND
     1    1    2 1
     2    1   35 1
     3    1   36 1
     4    1   37 1
     5    2    3 1
     6    3   12 ar
     7    3    4 ar
     8    4    5 ar
     9    4   38 1
    10    5   10 ar
    11    5    6 ar
    12    6    7 ar
    13    6   15 1
    14    7    8 ar
    15    7   39 1
    16    8    9 ar
    17    8   40 1
    18    9   10 ar
    19    9   56 1
    20   10   11 ar
    21   11   12 ar
    22   11   41 1
    23   12   13 1
    24   13   14 1
    25   14   42 1
    26   14   43 1
    27   14   44 1
    28   15   16 1
    29   16   21 ar
    30   16   17 ar
    31   17   18 ar
    32   17   45 1
    33   18   19 ar
    34   18   46 1
    35   19   25 ar
    36   19   20 ar
    37   20   21 ar
    38   20   22 ar
    39   21   47 1
    40   22   23 ar
    41   22   48 1
    42   23   24 ar
    43   23   49 1
    44   24   25 ar
    45   24   50 1
    46   25   26 1
    47   26   27 2
    48   26   28 am
    49   28   29 1
    50   28   51 1
    51   29   34 ar
    52   29   30 ar
    53   30   31 ar
    54   30   52 1
    55   31   32 ar
    56   31   53 1
    57   32   33 ar
    58   32   54 1
    59   33   34 ar
    60   33   55 1
@<TRIPOS>MOLECULE
CHEMBL410686
   49    53     0     0     0
SMALL
USER_CHARGES

@<TRIPOS>ATOM
      1 C1          1.2165    1.4582    0.1732 C.3       1 <0>        -0.0964
      2 C2          0.9881   -0.0300    0.1088 C.2       1 <0>         0.0992
      3 C3          1.2970   -0.8127   -0.9369 C.2       1 <0>        -0.1859
      4 C4          0.9093   -2.1776   -0.5757 C.ar      1 <0>        -0.1679
      5 C5          0.9725   -3.4142   -1.2260 C.ar      1 <0>         0.1599
      6 C6          0.4941   -4.5313   -0.5503 C.ar      1 <0>         0.0344
      7 C7         -0.0235   -4.3797    0.7319 C.ar      1 <0>         0.1767
      8 N1         -0.0706   -3.2030    1.3199 N.ar      1 <0>        -0.4797
      9 C8          0.3717   -2.1039    0.7223 C.ar      1 <0>         0.3031
     10 N2          0.4400   -0.7857    1.1108 N.pl3     1 <0>        -0.5728
     11 H1          0.1413   -0.4418    1.9672 H         1 <0>         0.4239
     12 N3          0.5325   -5.7962   -1.1547 N.pl3     1 <0>        -0.6099
     13 C9          0.5820   -6.9329   -0.3737 C.2       1 <0>         0.5375
     14 C10         0.4952   -8.2154   -0.9684 C.2       1 <0>        -0.1068
     15 C11         0.3602   -8.6480   -2.2699 C.2       1 <0>        -0.0157
     16 C12         0.3322  -10.0552   -2.2311 C.2       1 <0>        -0.1005
     17 C13         0.4511  -10.4328   -0.9058 C.2       1 <0>         0.1151
     18 N4          0.5490   -9.3272   -0.1484 N.pl3     1 <0>        -0.2277
     19 N5          0.6857   -9.1282    1.2334 N.2       1 <0>        -0.3511
     20 C14         0.7588   -7.9185    1.7160 C.2       1 <0>         0.3435
     21 N6          0.7166   -6.8379    0.9387 N.2       1 <0>        -0.6180
     22 C15         0.2001  -10.9612   -3.3916 C.2       1 <0>         0.2488
     23 N7          0.0928  -10.6040   -4.6502 N.2       1 <0>        -0.2672
     24 N8         -0.0028  -11.6568   -5.3835 N.2       1 <0>        -0.2861
     25 C16         0.0392  -12.7186   -4.6295 C.2       1 <0>         0.1640
     26 O1          0.1731  -12.3084   -3.3555 O.3       1 <0>        -0.2218
     27 C17        -0.0428  -14.1478   -5.1001 C.3       1 <0>        -0.0599
     28 C18         0.2608   -7.7813   -3.4987 C.3       1 <0>        -0.0230
     29 C19         1.4689   -8.0368   -4.4021 C.3       1 <0>        -0.1510
     30 C20        -1.0241   -8.1182   -4.2579 C.3       1 <0>        -0.1653
     31 F1          1.4824   -3.5200   -2.4726 F         1 <0>        -0.1202
     32 H2          2.2081    1.6563    0.5803 H         1 <0>         0.0841
     33 H3          1.1442    1.8805   -0.8291 H         1 <0>         0.0912
     34 H4          0.4625    1.9140    0.8148 H         1 <0>         0.0741
     35 H5          1.7454   -0.4961   -1.8670 H         1 <0>         0.1562
     36 H6         -0.3955   -5.2471    1.2568 H         1 <0>         0.1950
     37 H7          0.5242   -5.8721   -2.1217 H         1 <0>         0.4275
     38 H8          0.4634  -11.4489   -0.5399 H         1 <0>         0.1938
     39 H9          0.8638   -7.7889    2.7831 H         1 <0>         0.2267
     40 H10         0.9604  -14.5198   -5.3085 H         1 <0>         0.1003
     41 H11        -0.5034  -14.7599   -4.3247 H         1 <0>         0.0938
     42 H12        -0.6445  -14.1976   -6.0076 H         1 <0>         0.1085
     43 H13         0.2437   -6.7323   -3.2030 H         1 <0>         0.0600
     44 H14         1.4860   -9.0858   -4.6978 H         1 <0>         0.0822
     45 H15         1.3970   -7.4099   -5.2909 H         1 <0>         0.0662
     46 H16         2.3843   -7.7968   -3.8613 H         1 <0>         0.0495
     47 H17        -1.8848   -7.9361   -3.6143 H         1 <0>         0.0476
     48 H18        -1.0960   -7.4913   -5.1467 H         1 <0>         0.0638
     49 H19        -1.0070   -9.1672   -4.5536 H         1 <0>         0.1003
@<TRIPOS>BOND
     1    1    2 1
     2    1   32 1
     3    1   33 1
     4    1   34 1
     5    2   10 1
     6    2    3 2
     7    3    4 1
     8    3   35 1
     9    4    9 ar
    10    4    5 ar
    11    5    6 ar
    12    5   31 1
    13    6    7 ar
    14    6   12 1
    15    7    8 ar
    16    7   36 1
    17    8    9 ar
    18    9   10 1
    19   10   11 1
    20   12   13 1
    21   12   37 1
    22   13   21 2
    23   13   14 1
    24   14   18 1
    25   14   15 2
    26   15   16 1
    27   15   28 1
    28   16   17 2
    29   16   22 1
    30   17   18 1
    31   17   38 1
    32   18   19 1
    33   19   20 2
    34   20   21 1
    35   20   39 1
    36   22   26 1
    37   22   23 2
    38   23   24 1
    39   24   25 2
    40   25   26 1
    41   25   27 1
    42   27   40 1
    43   27   41 1
    44   27   42 1
    45   28   29 1
    46   28   30 1
    47   28   43 1
    48   29   44 1
    49   29   45 1
    50   29   46 1
    51   30   47 1
    52   30   48 1
    53   30   49 1
@<TRIPOS>MOLECULE
CHEMBL244288
   54    57     0     0     0
SMALL
USER_CHARGES

@<TRIPOS>ATOM
      1 C1        -14.0303    1.6660    5.3470 C.3       1 <0>         0.0462
      2 O1        -13.6591    1.9636    3.9995 O.3       1 <0>        -0.3325
      3 C2        -12.8356    1.0894    3.3834 C.2       1 <0>         0.6412
      4 O2        -12.4437    0.1005    3.9763 O.2       1 <0>        -0.6171
      5 N1        -12.4503    1.3090    2.1227 N.2       1 <0>        -0.6393
      6 C3        -11.5618    0.5054    1.5504 C.2       1 <0>         0.6709
      7 N2        -11.0548   -0.6297    2.1030 N.pl3     1 <0>        -0.6094
      8 H1        -11.2806   -0.9863    2.9763 H         1 <0>         0.4535
      9 C4        -10.1572   -1.1918    1.2003 C.ar      1 <0>         0.0981
     10 C5         -9.3655   -2.3301    1.2390 C.ar      1 <0>        -0.1165
     11 C6         -8.5515   -2.6406    0.1617 C.ar      1 <0>         0.1046
     12 C7         -8.5265   -1.8150   -0.9551 C.ar      1 <0>        -0.1033
     13 C8         -9.3122   -0.6808   -0.9984 C.ar      1 <0>        -0.0782
     14 C9        -10.1306   -0.3636    0.0760 C.ar      1 <0>         0.0871
     15 N3        -11.0184    0.6831    0.3166 N.pl3     1 <0>        -0.5847
     16 O3         -7.7749   -3.7558    0.1979 O.3       1 <0>        -0.2501
     17 C10        -8.3785   -4.9597    0.0165 C.ar      1 <0>         0.1237
     18 C11        -7.6155   -6.1168   -0.0496 C.ar      1 <0>        -0.1386
     19 C12        -8.2316   -7.3393   -0.2340 C.ar      1 <0>        -0.0641
     20 C13        -9.6073   -7.4105   -0.3533 C.ar      1 <0>        -0.1049
     21 C14       -10.3699   -6.2590   -0.2877 C.ar      1 <0>        -0.0630
     22 C15        -9.7594   -5.0347   -0.0972 C.ar      1 <0>        -0.1922
     23 C16       -10.2766   -8.7455   -0.5554 C.3       1 <0>        -0.0939
     24 C17       -10.6136   -9.3466    0.7848 C.2       1 <0>         0.5155
     25 O4        -10.3374   -8.7497    1.8039 O.2       1 <0>        -0.5009
     26 N4        -11.2219  -10.5475    0.8510 N.am      1 <0>        -0.6692
     27 C18       -11.6086  -11.0691    2.0918 C.ar      1 <0>         0.1175
     28 C19       -10.9480  -10.6766    3.2479 C.ar      1 <0>        -0.0631
     29 C20       -11.3319  -11.1923    4.4705 C.ar      1 <0>        -0.1733
     30 C21       -12.3730  -12.0994    4.5449 C.ar      1 <0>        -0.0597
     31 C22       -13.0339  -12.4939    3.3962 C.ar      1 <0>        -0.1316
     32 C23       -12.6590  -11.9769    2.1694 C.ar      1 <0>         0.1001
     33 F1        -13.3083  -12.3579    1.0476 F         1 <0>        -0.1274
     34 C24       -10.6145  -10.7661    5.7254 C.3       1 <0>         0.5124
     35 F2        -11.2469   -9.6406    6.2646 F         1 <0>        -0.1725
     36 F3        -10.6450  -11.8092    6.6572 F         1 <0>        -0.1745
     37 F4         -9.2859  -10.4527    5.4195 F         1 <0>        -0.1729
     38 H2        -14.6923    2.4464    5.7223 H         1 <0>         0.1053
     39 H3        -14.5458    0.7061    5.3783 H         1 <0>         0.0595
     40 H4        -13.1359    1.6186    5.9682 H         1 <0>         0.0594
     41 H5        -11.2133    1.4141   -0.2905 H         1 <0>         0.4502
     42 H6         -9.3833   -2.9725    2.1069 H         1 <0>         0.1448
     43 H7         -7.8901   -2.0612   -1.7922 H         1 <0>         0.1507
     44 H8         -9.2900   -0.0409   -1.8682 H         1 <0>         0.1489
     45 H9         -6.5408   -6.0616    0.0428 H         1 <0>         0.1361
     46 H10        -7.6382   -8.2402   -0.2856 H         1 <0>         0.1313
     47 H11       -11.4443   -6.3174   -0.3815 H         1 <0>         0.1246
     48 H12       -10.3559   -4.1361   -0.0413 H         1 <0>         0.1298
     49 H13       -11.1910   -8.6098   -1.1330 H         1 <0>         0.1105
     50 H14        -9.6026   -9.4121   -1.0935 H         1 <0>         0.1117
     51 H15       -11.3918  -11.0505    0.0392 H         1 <0>         0.4190
     52 H16       -10.1342   -9.9688    3.1914 H         1 <0>         0.1766
     53 H17       -12.6704  -12.5009    5.5023 H         1 <0>         0.1493
     54 H18       -13.8464  -13.2027    3.4576 H         1 <0>         0.1544
@<TRIPOS>BOND
     1    1    2 1
     2    1   38 1
     3    1   39 1
     4    1   40 1
     5    2    3 1
     6    3    4 2
     7    3    5 1
     8    5    6 2
     9    6   15 1
    10    6    7 1
    11    7    9 1
    12    7    8 1
    13    9   10 ar
    14    9   14 ar
    15   10   11 ar
    16   10   42 1
    17   11   12 ar
    18   11   16 1
    19   12   13 ar
    20   12   43 1
    21   13   14 ar
    22   13   44 1
    23   14   15 1
    24   15   41 1
    25   16   17 1
    26   17   22 ar
    27   17   18 ar
    28   18   19 ar
    29   18   45 1
    30   19   20 ar
    31   19   46 1
    32   20   21 ar
    33   20   23 1
    34   21   22 ar
    35   21   47 1
    36   22   48 1
    37   23   24 1
    38   23   49 1
    39   23   50 1
    40   24   25 2
    41   24   26 am
    42   26   27 1
    43   26   51 1
    44   27   32 ar
    45   27   28 ar
    46   28   29 ar
    47   28   52 1
    48   29   30 ar
    49   29   34 1
    50   30   31 ar
    51   30   53 1
    52   31   32 ar
    53   31   54 1
    54   32   33 1
    55   34   35 1
    56   34   36 1
    57   34   37 1
@<TRIPOS>MOLECULE
CHEMBL244288__1
   54    57     0     0     0
SMALL
USER_CHARGES

@<TRIPOS>ATOM
      1 C1         -3.2887  -16.2246   -1.2389 C.3       1 <0>         0.0464
      2 O1         -3.9939  -15.2355   -1.9916 O.3       1 <0>        -0.3324
      3 C2         -4.2380  -14.0578   -1.3788 C.2       1 <0>         0.6420
      4 O2         -3.8612  -13.8769   -0.2350 O.2       1 <0>        -0.6183
      5 N1         -4.8932  -13.0903   -2.0274 N.2       1 <0>        -0.6395
      6 C3         -5.2226  -11.9713   -1.3932 C.2       1 <0>         0.6711
      7 N2         -5.9780  -10.9651   -1.9108 N.pl3     1 <0>        -0.5848
      8 H1         -6.3646  -10.9447   -2.8002 H         1 <0>         0.4502
      9 C4         -6.1013   -9.9704   -0.9454 C.ar      1 <0>         0.1013
     10 C5         -6.7489   -8.7439   -0.9293 C.ar      1 <0>        -0.1136
     11 C6         -6.6937   -7.9501    0.2050 C.ar      1 <0>         0.1020
     12 C7         -5.9916   -8.3796    1.3240 C.ar      1 <0>        -0.1004
     13 C8         -5.3450   -9.5992    1.3128 C.ar      1 <0>        -0.0813
     14 C9         -5.3965  -10.4001    0.1811 C.ar      1 <0>         0.0843
     15 N3         -4.8634  -11.6516   -0.1212 N.pl3     1 <0>        -0.6092
     16 O3         -7.3278   -6.7478    0.2227 O.3       1 <0>        -0.2494
     17 C10        -8.6803   -6.7417    0.3529 C.ar      1 <0>         0.1235
     18 C11        -9.3618   -5.5388    0.4714 C.ar      1 <0>        -0.1386
     19 C12       -10.7368   -5.5355    0.6037 C.ar      1 <0>        -0.0641
     20 C13       -11.4340   -6.7295    0.6185 C.ar      1 <0>        -0.1048
     21 C14       -10.7574   -7.9295    0.5006 C.ar      1 <0>        -0.0630
     22 C15        -9.3830   -7.9382    0.3618 C.ar      1 <0>        -0.1925
     23 C16       -12.9340   -6.7228    0.7639 C.3       1 <0>        -0.0942
     24 C17       -13.5707   -6.6583   -0.6004 C.2       1 <0>         0.5159
     25 O4        -12.8749   -6.6213   -1.5932 O.2       1 <0>        -0.5012
     26 N4        -14.9133   -6.6416   -0.7175 N.am      1 <0>        -0.6692
     27 C18       -15.5059   -6.6644   -1.9861 C.ar      1 <0>         0.1174
     28 C19       -14.8106   -6.1843   -3.0875 C.ar      1 <0>        -0.0630
     29 C20       -15.3975   -6.2084   -4.3378 C.ar      1 <0>        -0.1735
     30 C21       -16.6768   -6.7095   -4.4942 C.ar      1 <0>        -0.0597
     31 C22       -17.3737   -7.1884   -3.4003 C.ar      1 <0>        -0.1316
     32 C23       -16.7900   -7.1732   -2.1464 C.ar      1 <0>         0.1002
     33 F1        -17.4686   -7.6462   -1.0783 F         1 <0>        -0.1274
     34 C24       -14.6424   -5.6871   -5.5333 C.3       1 <0>         0.5125
     35 F2        -13.9112   -6.7291   -6.1136 F         1 <0>        -0.1725
     36 F3        -15.5473   -5.1747   -6.4692 F         1 <0>        -0.1745
     37 F4        -13.7679   -4.6736   -5.1269 F         1 <0>        -0.1729
     38 H2         -3.1592  -17.1199   -1.8469 H         1 <0>         0.1051
     39 H3         -2.3116  -15.8352   -0.9528 H         1 <0>         0.0596
     40 H4         -3.8574  -16.4730   -0.3428 H         1 <0>         0.0591
     41 H5         -4.3264  -12.1993    0.4726 H         1 <0>         0.4536
     42 H6         -7.2945   -8.4084   -1.7988 H         1 <0>         0.1469
     43 H7         -5.9512   -7.7571    2.2056 H         1 <0>         0.1499
     44 H8         -4.7998   -9.9298    2.1845 H         1 <0>         0.1470
     45 H9         -8.8176   -4.6060    0.4606 H         1 <0>         0.1360
     46 H10       -11.2677   -4.5995    0.6960 H         1 <0>         0.1312
     47 H11       -11.3043   -8.8607    0.5128 H         1 <0>         0.1246
     48 H12        -8.8555   -8.8756    0.2649 H         1 <0>         0.1301
     49 H13       -13.2538   -7.6329    1.2715 H         1 <0>         0.1105
     50 H14       -13.2385   -5.8546    1.3484 H         1 <0>         0.1116
     51 H15       -15.4690   -6.6139    0.0771 H         1 <0>         0.4191
     52 H16       -13.8117   -5.7919   -2.9668 H         1 <0>         0.1767
     53 H17       -17.1328   -6.7265   -5.4731 H         1 <0>         0.1493
     54 H18       -18.3728   -7.5789   -3.5257 H         1 <0>         0.1544
@<TRIPOS>BOND
     1    1    2 1
     2    1   38 1
     3    1   39 1
     4    1   40 1
     5    2    3 1
     6    3    4 2
     7    3    5 1
     8    5    6 2
     9    6   15 1
    10    6    7 1
    11    7    9 1
    12    7    8 1
    13    9   10 ar
    14    9   14 ar
    15   10   11 ar
    16   10   42 1
    17   11   12 ar
    18   11   16 1
    19   12   13 ar
    20   12   43 1
    21   13   14 ar
    22   13   44 1
    23   14   15 1
    24   15   41 1
    25   16   17 1
    26   17   22 ar
    27   17   18 ar
    28   18   19 ar
    29   18   45 1
    30   19   20 ar
    31   19   46 1
    32   20   21 ar
    33   20   23 1
    34   21   22 ar
    35   21   47 1
    36   22   48 1
    37   23   24 1
    38   23   49 1
    39   23   50 1
    40   24   25 2
    41   24   26 am
    42   26   27 1
    43   26   51 1
    44   27   32 ar
    45   27   28 ar
    46   28   29 ar
    47   28   52 1
    48   29   30 ar
    49   29   34 1
    50   30   31 ar
    51   30   53 1
    52   31   32 ar
    53   31   54 1
    54   32   33 1
    55   34   35 1
    56   34   36 1
    57   34   37 1
@<TRIPOS>MOLECULE
CHEMBL247250
   48    51     0     0     0
SMALL
USER_CHARGES

@<TRIPOS>ATOM
      1 C1         -0.7918   -1.1889    1.5773 C.3       1 <0>         0.1057
      2 N1         -0.0683   -0.6011    0.4471 N.am      1 <0>        -0.7475
      3 C2          0.4494   -1.3974   -0.5091 C.2       1 <0>         0.6904
      4 O1          0.3160   -2.6035   -0.4338 O.2       1 <0>        -0.5227
      5 N2          1.1149   -0.8566   -1.5489 N.am      1 <0>        -0.6702
      6 C3          1.7402   -1.6825   -2.4816 C.ar      1 <0>         0.3887
      7 C4          2.5179   -1.1201   -3.4877 C.ar      1 <0>        -0.2108
      8 C5          3.1329   -1.9513   -4.4069 C.ar      1 <0>        -0.0221
      9 C6          2.9483   -3.3222   -4.2877 C.ar      1 <0>        -0.2030
     10 C7          2.1626   -3.8119   -3.2636 C.ar      1 <0>         0.1604
     11 N3          1.5927   -2.9951   -2.3982 N.ar      1 <0>        -0.4735
     12 C8          3.5984   -4.2659   -5.2665 C.3       1 <0>         0.1785
     13 N4          4.9214   -4.6507   -4.7686 N.pl3     1 <0>        -0.6817
     14 C9          5.7146   -5.5200   -5.5055 C.2       1 <0>         0.4455
     15 C10         6.9805   -5.9193   -5.0685 C.2       1 <0>        -0.3999
     16 S1          7.4632   -6.9950   -6.4097 S.3       1 <0>         0.1508
     17 C11         6.0755   -6.8388   -7.3483 C.2       1 <0>         0.1080
     18 N5          5.3181   -6.0221   -6.6547 N.2       1 <0>        -0.5615
     19 C12         7.6839   -5.5686   -3.8916 C.2       1 <0>         0.6268
     20 O2          7.1798   -4.8081   -3.0845 O.2       1 <0>        -0.5278
     21 N6          8.9116   -6.0760   -3.6638 N.am      1 <0>        -0.6692
     22 C13         9.5629   -5.8157   -2.4518 C.ar      1 <0>         0.1772
     23 C14        10.9453   -5.6882   -2.4198 C.ar      1 <0>        -0.1270
     24 C15        11.5893   -5.4310   -1.2247 C.ar      1 <0>        -0.0576
     25 C16        10.8582   -5.3000   -0.0550 C.ar      1 <0>         0.0067
     26 C17         9.4715   -5.4279   -0.0838 C.ar      1 <0>         0.0509
     27 C18         8.8263   -5.6795   -1.2831 C.ar      1 <0>        -0.0883
     28 O3          8.9913   -5.2589    1.1829 O.3       1 <0>        -0.2840
     29 C19        10.1266   -5.4330    2.0511 C.3       1 <0>         0.5706
     30 O4         11.2464   -5.0508    1.2307 O.3       1 <0>        -0.2852
     31 F1         10.0255   -4.5946    3.1665 F         1 <0>        -0.1155
     32 F2         10.2415   -6.7696    2.4480 F         1 <0>        -0.1527
     33 H1         -1.6507   -1.7487    1.2073 H         1 <0>         0.0609
     34 H2         -0.1288   -1.8598    2.1237 H         1 <0>         0.0609
     35 H3         -1.1340   -0.3956    2.2418 H         1 <0>         0.0785
     36 H4          0.0381    0.3611    0.3870 H         1 <0>         0.3978
     37 H5          1.1588    0.1073   -1.6482 H         1 <0>         0.4144
     38 H6          2.6399   -0.0489   -3.5510 H         1 <0>         0.1389
     39 H7          3.7426   -1.5430   -5.1994 H         1 <0>         0.1401
     40 H8          2.0158   -4.8776   -3.1671 H         1 <0>         0.1594
     41 H9          2.9795   -5.1561   -5.3788 H         1 <0>         0.0799
     42 H10         3.7032   -3.7720   -6.2325 H         1 <0>         0.0783
     43 H11         5.2432   -4.2981   -3.9242 H         1 <0>         0.4274
     44 H12         5.8575   -7.3048   -8.2979 H         1 <0>         0.2301
     45 H13         9.3439   -6.6214   -4.3394 H         1 <0>         0.4147
     46 H14        11.5176   -5.7899   -3.3300 H         1 <0>         0.1511
     47 H15        12.6645   -5.3322   -1.2021 H         1 <0>         0.1509
     48 H16         7.7507   -5.7739   -1.3084 H         1 <0>         0.1566
@<TRIPOS>BOND
     1    1    2 1
     2    1   33 1
     3    1   34 1
     4    1   35 1
     5    2    3 am
     6    2   36 1
     7    3    4 2
     8    3    5 am
     9    5    6 1
    10    5   37 1
    11    6   11 ar
    12    6    7 ar
    13    7    8 ar
    14    7   38 1
    15    8    9 ar
    16    8   39 1
    17    9   10 ar
    18    9   12 1
    19   10   11 ar
    20   10   40 1
    21   12   13 1
    22   12   41 1
    23   12   42 1
    24   13   14 1
    25   13   43 1
    26   14   18 1
    27   14   15 2
    28   15   16 1
    29   15   19 1
    30   16   17 1
    31   17   18 2
    32   17   44 1
    33   19   20 2
    34   19   21 am
    35   21   22 1
    36   21   45 1
    37   22   27 ar
    38   22   23 ar
    39   23   24 ar
    40   23   46 1
    41   24   25 ar
    42   24   47 1
    43   25   30 1
    44   25   26 ar
    45   26   27 ar
    46   26   28 1
    47   27   48 1
    48   28   29 1
    49   29   30 1
    50   29   31 1
    51   29   32 1
@<TRIPOS>MOLECULE
CHEMBL453057
   56    60     0     0     0
SMALL
USER_CHARGES

@<TRIPOS>ATOM
      1 C1         -1.1854    1.0251   -0.4170 C.3       1 <0>        -0.1155
      2 C2         -1.7118   -0.2508    0.1880 C.ar      1 <0>        -0.0663
      3 C3         -2.9514   -0.7342   -0.1893 C.ar      1 <0>        -0.1349
      4 C4         -3.4379   -1.9043    0.3634 C.ar      1 <0>        -0.0949
      5 C5         -2.6865   -2.5947    1.2945 C.ar      1 <0>        -0.1251
      6 C6         -1.4414   -2.1123    1.6751 C.ar      1 <0>         0.1639
      7 C7         -0.9534   -0.9390    1.1143 C.ar      1 <0>        -0.1475
      8 N1         -0.6777   -2.8093    2.6180 N.am      1 <0>        -0.6813
      9 C8         -0.7419   -4.1543    2.6759 C.2       1 <0>         0.7034
     10 O1         -1.3893   -4.7682    1.8497 O.2       1 <0>        -0.5493
     11 N2         -0.0885   -4.8189    3.6495 N.am      1 <0>        -0.6827
     12 C9         -0.0651   -6.2186    3.6473 C.ar      1 <0>         0.1661
     13 C10        -0.0541   -6.9100    2.4421 C.ar      1 <0>        -0.1148
     14 C11        -0.0315   -8.2887    2.4370 C.ar      1 <0>        -0.0800
     15 C12        -0.0191   -8.9891    3.6428 C.ar      1 <0>        -0.0364
     16 C13        -0.0297   -8.2926    4.8509 C.ar      1 <0>        -0.0942
     17 C14        -0.0471   -6.9137    4.8502 C.ar      1 <0>        -0.1419
     18 C15         0.0048  -10.4714    3.6405 C.2       1 <0>        -0.2446
     19 C16        -1.0814  -11.2023    3.1222 C.2       1 <0>         0.1991
     20 N3         -1.0565  -12.5141    3.1224 N.2       1 <0>        -0.4800
     21 C17        -0.0077  -13.1939    3.6102 C.2       1 <0>         0.2433
     22 C18         0.2447  -14.5602    3.7175 C.2       1 <0>        -0.0879
     23 C19         1.5151  -14.6968    4.3148 C.2       1 <0>        -0.1108
     24 C20         1.9975  -13.4590    4.5524 C.2       1 <0>        -0.0705
     25 N4          1.0836  -12.5329    4.1298 N.pl3     1 <0>        -0.4060
     26 C21         1.1012  -11.1591    4.1442 C.2       1 <0>         0.4452
     27 N5          2.1822  -10.4777    4.6527 N.pl3     1 <0>        -0.8393
     28 C22        -0.6522  -15.6612    3.2863 C.2       1 <0>        -0.1474
     29 C23        -2.0192  -15.7921    3.5997 C.2       1 <0>         0.0727
     30 N6         -2.4624  -16.8875    3.0407 N.2       1 <0>        -0.3007
     31 N7         -1.4050  -17.4956    2.3531 N.pl3     1 <0>        -0.3792
     32 C24        -0.3037  -16.7273    2.5093 C.2       1 <0>         0.0590
     33 C25        -1.4807  -18.7447    1.5913 C.3       1 <0>         0.1031
     34 H1         -0.6221    0.7932   -1.3210 H         1 <0>         0.0722
     35 H2         -2.0200    1.6801   -0.6670 H         1 <0>         0.0689
     36 H3         -0.5332    1.5249    0.2992 H         1 <0>         0.0664
     37 H4         -3.5409   -0.1962   -0.9171 H         1 <0>         0.1238
     38 H5         -4.4067   -2.2789    0.0673 H         1 <0>         0.1270
     39 H6         -3.0672   -3.5085    1.7262 H         1 <0>         0.1357
     40 H7          0.0163   -0.5632    1.4055 H         1 <0>         0.1245
     41 H8         -0.1020   -2.3245    3.2299 H         1 <0>         0.4084
     42 H9          0.3654   -4.3273    4.3518 H         1 <0>         0.4089
     43 H10        -0.0637   -6.3671    1.5086 H         1 <0>         0.1386
     44 H11        -0.0237   -8.8257    1.5000 H         1 <0>         0.1291
     45 H12        -0.0202   -8.8325    5.7862 H         1 <0>         0.1263
     46 H13        -0.0508   -6.3737    5.7855 H         1 <0>         0.1279
     47 H14        -1.9388  -10.6809    2.7231 H         1 <0>         0.1689
     48 H15         2.0138  -15.6276    4.5418 H         1 <0>         0.1517
     49 H16         2.9525  -13.2352    5.0045 H         1 <0>         0.1658
     50 H17         2.1836   -9.5077    4.6617 H         1 <0>         0.4233
     51 H18         2.9433  -10.9671    5.0022 H         1 <0>         0.4064
     52 H19        -2.6003  -15.1064    4.1985 H         1 <0>         0.1805
     53 H20         0.6748  -16.9232    2.0964 H         1 <0>         0.1730
     54 H21        -1.7437  -18.5240    0.5568 H         1 <0>         0.0735
     55 H22        -0.5140  -19.2475    1.6211 H         1 <0>         0.0860
     56 H23        -2.2405  -19.3919    2.0293 H         1 <0>         0.0885
@<TRIPOS>BOND
     1    1    2 1
     2    1   34 1
     3    1   35 1
     4    1   36 1
     5    2    7 ar
     6    2    3 ar
     7    3    4 ar
     8    3   37 1
     9    4    5 ar
    10    4   38 1
    11    5    6 ar
    12    5   39 1
    13    6    7 ar
    14    6    8 1
    15    7   40 1
    16    8    9 am
    17    8   41 1
    18    9   10 2
    19    9   11 am
    20   11   12 1
    21   11   42 1
    22   12   17 ar
    23   12   13 ar
    24   13   14 ar
    25   13   43 1
    26   14   15 ar
    27   14   44 1
    28   15   16 ar
    29   15   18 1
    30   16   17 ar
    31   16   45 1
    32   17   46 1
    33   18   26 2
    34   18   19 1
    35   19   20 2
    36   19   47 1
    37   20   21 1
    38   21   25 1
    39   21   22 2
    40   22   23 1
    41   22   28 1
    42   23   24 2
    43   23   48 1
    44   24   25 1
    45   24   49 1
    46   25   26 1
    47   26   27 1
    48   27   50 1
    49   27   51 1
    50   28   32 2
    51   28   29 1
    52   29   30 2
    53   29   52 1
    54   30   31 1
    55   31   32 1
    56   31   33 1
    57   32   53 1
    58   33   54 1
    59   33   55 1
    60   33   56 1
@<TRIPOS>MOLECULE
CHEMBL509101
   50    54     0     0     0
SMALL
USER_CHARGES

@<TRIPOS>ATOM
      1 C1          0.6234    0.6787    1.6092 C.2       1 <0>        -0.2337
      2 C2          1.8025    1.4046    1.4424 C.2       1 <0>         0.0790
      3 C3          2.7539    0.9472    0.5322 C.2       1 <0>        -0.2850
      4 C4          2.4899   -0.2423   -0.1941 C.2       1 <0>         0.5357
      5 O1          3.3061   -0.6631   -0.9956 O.2       1 <0>        -0.5326
      6 N1          1.3349   -0.9054    0.0049 N.am      1 <0>        -0.4430
      7 C5          0.4138   -0.4548    0.8919 C.2       1 <0>         0.1717
      8 C6          1.0809   -2.0791   -0.7162 C.ar      1 <0>         0.0762
      9 C7          1.8265   -3.2237   -0.4664 C.ar      1 <0>        -0.0560
     10 C8          1.5745   -4.3798   -1.1784 C.ar      1 <0>        -0.1414
     11 C9          0.5791   -4.3981   -2.1412 C.ar      1 <0>         0.1215
     12 C10        -0.1652   -3.2575   -2.3922 C.ar      1 <0>        -0.1422
     13 C11         0.0794   -2.1012   -1.6780 C.ar      1 <0>        -0.0727
     14 F1          0.3342   -5.5301   -2.8367 F         1 <0>        -0.1292
     15 C12         4.0094    1.6852    0.3280 C.2       1 <0>         0.5863
     16 O2          4.1612    2.7798    0.8370 O.2       1 <0>        -0.5206
     17 N2          4.9917    1.1491   -0.4230 N.am      1 <0>        -0.6567
     18 C13         6.2443    1.7716   -0.4853 C.ar      1 <0>         0.1866
     19 C14         6.3545    3.1356   -0.2486 C.ar      1 <0>        -0.1372
     20 C15         7.5898    3.7500   -0.3094 C.ar      1 <0>        -0.0659
     21 C16         8.7215    3.0057   -0.6074 C.ar      1 <0>         0.0223
     22 C17         8.6131    1.6410   -0.8445 C.ar      1 <0>         0.1126
     23 C18         7.3774    1.0243   -0.7781 C.ar      1 <0>        -0.1766
     24 F2          9.7154    0.9159   -1.1348 F         1 <0>        -0.1239
     25 O3          9.9374    3.6118   -0.6680 O.3       1 <0>        -0.2347
     26 C19        10.5095    3.7713   -1.8879 C.ar      1 <0>         0.2110
     27 C20         9.8259    3.4333   -3.0493 C.ar      1 <0>        -0.2832
     28 C21        10.4431    3.6111   -4.2750 C.ar      1 <0>         0.1778
     29 N3         11.6650    4.0932   -4.3699 N.ar      1 <0>        -0.5183
     30 C22        12.3684    4.4342   -3.2964 C.ar      1 <0>         0.3161
     31 C23        11.8066    4.2880   -2.0159 C.ar      1 <0>        -0.1773
     32 C24        12.8201    4.7528   -1.0678 C.2       1 <0>        -0.1745
     33 C25        13.8820    5.1397   -1.7917 C.2       1 <0>         0.0508
     34 N4         13.6311    4.9477   -3.1249 N.pl3     1 <0>        -0.5789
     35 H1         14.2501    5.1538   -3.8427 H         1 <0>         0.4228
     36 H2         -0.1224    1.0165    2.3135 H         1 <0>         0.1645
     37 H3          1.9756    2.3073    2.0094 H         1 <0>         0.1577
     38 H4         -0.5036   -1.0077    1.0305 H         1 <0>         0.1751
     39 H5          2.6031   -3.2097    0.2840 H         1 <0>         0.1400
     40 H6          2.1544   -5.2701   -0.9847 H         1 <0>         0.1488
     41 H7         -0.9408   -3.2737   -3.1436 H         1 <0>         0.1492
     42 H8         -0.5047   -1.2134   -1.8704 H         1 <0>         0.1424
     43 H9          4.8310    0.3319   -0.9203 H         1 <0>         0.4282
     44 H10         5.4737    3.7162   -0.0171 H         1 <0>         0.1738
     45 H11         7.6747    4.8108   -0.1252 H         1 <0>         0.1480
     46 H12         7.2929   -0.0373   -0.9579 H         1 <0>         0.1468
     47 H13         8.8233    3.0355   -2.9960 H         1 <0>         0.1386
     48 H14         9.9096    3.3475   -5.1763 H         1 <0>         0.1655
     49 H15        12.7305    4.7796    0.0082 H         1 <0>         0.1531
     50 H16        14.8005    5.5350   -1.3837 H         1 <0>         0.1813
@<TRIPOS>BOND
     1    1    7 2
     2    1    2 1
     3    1   36 1
     4    2    3 2
     5    2   37 1
     6    3    4 1
     7    3   15 1
     8    4    5 2
     9    4    6 am
    10    6    7 1
    11    6    8 1
    12    7   38 1
    13    8   13 ar
    14    8    9 ar
    15    9   10 ar
    16    9   39 1
    17   10   11 ar
    18   10   40 1
    19   11   12 ar
    20   11   14 1
    21   12   13 ar
    22   12   41 1
    23   13   42 1
    24   15   16 2
    25   15   17 am
    26   17   18 1
    27   17   43 1
    28   18   23 ar
    29   18   19 ar
    30   19   20 ar
    31   19   44 1
    32   20   21 ar
    33   20   45 1
    34   21   22 ar
    35   21   25 1
    36   22   23 ar
    37   22   24 1
    38   23   46 1
    39   25   26 1
    40   26   31 ar
    41   26   27 ar
    42   27   28 ar
    43   27   47 1
    44   28   29 ar
    45   28   48 1
    46   29   30 ar
    47   30   34 1
    48   30   31 ar
    49   31   32 1
    50   32   33 2
    51   32   49 1
    52   33   34 1
    53   33   50 1
    54   34   35 1
@<TRIPOS>MOLECULE
CHEMBL215943
   67    71     0     0     0
SMALL
USER_CHARGES

@<TRIPOS>ATOM
      1 C1         -0.0483    1.5024    0.0098 C.3       1 <0>        -0.1268
      2 C2         -0.0195   -0.0043    0.0016 C.ar      1 <0>        -0.0386
      3 C3         -0.0178   -0.6868   -1.1996 C.ar      1 <0>        -0.1235
      4 C4          0.0085   -2.0667   -1.2158 C.ar      1 <0>        -0.0785
      5 C5          0.0330   -2.7811   -0.0158 C.ar      1 <0>        -0.1428
      6 C6          0.0314   -2.0969    1.1984 C.ar      1 <0>        -0.0380
      7 C7          0.0111   -0.7058    1.2063 C.ar      1 <0>        -0.0517
      8 C8          0.0158    0.0300    2.4946 C.ar      1 <0>        -0.0766
      9 C9          0.9293    1.0770    2.6951 C.ar      1 <0>        -0.0509
     10 C10         0.9551    1.7681    3.8654 C.ar      1 <0>        -0.1204
     11 C11         0.0589    1.4368    4.8939 C.ar      1 <0>         0.2183
     12 C12        -0.8687    0.3799    4.7012 C.ar      1 <0>        -0.2144
     13 C13        -0.8839   -0.3174    3.4865 C.ar      1 <0>        -0.0354
     14 C14        -1.7564    0.0690    5.7490 C.ar      1 <0>         0.2451
     15 N1         -1.6869    0.7718    6.8601 N.ar      1 <0>        -0.5576
     16 C15        -0.8035    1.7573    7.0067 C.ar      1 <0>         0.5740
     17 N2          0.0519    2.0930    6.0606 N.ar      1 <0>        -0.5737
     18 N3         -0.7822    2.4573    8.1995 N.pl3     1 <0>        -0.6964
     19 C16        -1.7195    2.1088    9.2701 C.3       1 <0>         0.1398
     20 C17        -1.4872    3.0285   10.4706 C.3       1 <0>         0.0428
     21 N4         -2.4271    2.6791   11.5442 N.3       1 <0>        -0.5321
     22 C18        -3.8120    2.9741   11.1487 C.3       1 <0>         0.0117
     23 C19        -4.7604    2.5406   12.2697 C.3       1 <0>         0.0630
     24 O1         -4.3910    3.2025   13.4824 O.3       1 <0>        -0.3850
     25 C20        -3.0483    2.9369   13.8974 C.3       1 <0>         0.0630
     26 C21        -2.0826    3.3743   12.7929 C.3       1 <0>         0.0183
     27 C22         0.0602   -4.2590   -0.0337 C.2       1 <0>         0.5622
     28 O2          0.0816   -4.8792    1.0117 O.2       1 <0>        -0.5109
     29 N5          0.0613   -4.9189   -1.2088 N.am      1 <0>        -0.6699
     30 C23         0.1847   -6.3117   -1.2285 C.ar      1 <0>         0.1443
     31 C24         0.8894   -6.9337   -2.2514 C.ar      1 <0>        -0.1118
     32 C25         1.0099   -8.3092   -2.2677 C.ar      1 <0>        -0.0994
     33 C26         0.4298   -9.0675   -1.2671 C.ar      1 <0>        -0.0865
     34 C27        -0.2722   -8.4516   -0.2475 C.ar      1 <0>        -0.1641
     35 C28        -0.3920   -7.0758   -0.2225 C.ar      1 <0>        -0.0722
     36 C29        -0.9025   -9.2820    0.8407 C.3       1 <0>         0.5092
     37 F1         -0.6426  -10.6360    0.6040 F         1 <0>        -0.1761
     38 F2         -0.3653   -8.9135    2.0788 F         1 <0>        -0.1725
     39 F3         -2.2849   -9.0671    0.8497 F         1 <0>        -0.1757
     40 H1          0.9721    1.8854   -0.0029 H         1 <0>         0.0793
     41 H2         -0.5817    1.8604   -0.8708 H         1 <0>         0.0726
     42 H3         -0.5562    1.8513    0.9089 H         1 <0>         0.0756
     43 H4         -0.0375   -0.1384   -2.1297 H         1 <0>         0.1346
     44 H5          0.0097   -2.5949   -2.1579 H         1 <0>         0.1271
     45 H6          0.0504   -2.6442    2.1292 H         1 <0>         0.1408
     46 H7          1.6219    1.3369    1.9082 H         1 <0>         0.1341
     47 H8          1.6644    2.5707    4.0039 H         1 <0>         0.1396
     48 H9         -1.5883   -1.1204    3.3272 H         1 <0>         0.1367
     49 H10        -2.4780   -0.7275    5.6434 H         1 <0>         0.1790
     50 H11        -0.1467    3.1789    8.3270 H         1 <0>         0.4144
     51 H12        -2.7417    2.2301    8.9119 H         1 <0>         0.0688
     52 H13        -1.5600    1.0730    9.5698 H         1 <0>         0.0789
     53 H14        -0.4650    2.9072   10.8288 H         1 <0>         0.0845
     54 H15        -1.6467    4.0643   10.1709 H         1 <0>         0.0436
     55 H16        -3.9204    4.0444   10.9738 H         1 <0>         0.0453
     56 H17        -4.0538    2.4291   10.2363 H         1 <0>         0.0911
     57 H18        -5.7831    2.8094   12.0054 H         1 <0>         0.1000
     58 H19        -4.6911    1.4617   12.4082 H         1 <0>         0.0622
     59 H20        -2.8329    3.4922   14.8102 H         1 <0>         0.1003
     60 H21        -2.9293    1.8694   14.0832 H         1 <0>         0.0619
     61 H22        -1.0621    3.1215   13.0806 H         1 <0>         0.0888
     62 H23        -2.1634    4.4511   12.6442 H         1 <0>         0.0455
     63 H24        -0.0236   -4.4277   -2.0409 H         1 <0>         0.4141
     64 H25         1.3423   -6.3421   -3.0333 H         1 <0>         0.1370
     65 H26         1.5573   -8.7933   -3.0629 H         1 <0>         0.1416
     66 H27         0.5252  -10.1432   -1.2823 H         1 <0>         0.1414
     67 H28        -0.9370   -6.5950    0.5764 H         1 <0>         0.1510
@<TRIPOS>BOND
     1    1    2 1
     2    1   40 1
     3    1   41 1
     4    1   42 1
     5    2    7 ar
     6    2    3 ar
     7    3    4 ar
     8    3   43 1
     9    4    5 ar
    10    4   44 1
    11    5    6 ar
    12    5   27 1
    13    6    7 ar
    14    6   45 1
    15    7    8 1
    16    8   13 ar
    17    8    9 ar
    18    9   10 ar
    19    9   46 1
    20   10   11 ar
    21   10   47 1
    22   11   17 ar
    23   11   12 ar
    24   12   13 ar
    25   12   14 ar
    26   13   48 1
    27   14   15 ar
    28   14   49 1
    29   15   16 ar
    30   16   17 ar
    31   16   18 1
    32   18   19 1
    33   18   50 1
    34   19   20 1
    35   19   51 1
    36   19   52 1
    37   20   21 1
    38   20   53 1
    39   20   54 1
    40   21   26 1
    41   21   22 1
    42   22   23 1
    43   22   55 1
    44   22   56 1
    45   23   24 1
    46   23   57 1
    47   23   58 1
    48   24   25 1
    49   25   26 1
    50   25   59 1
    51   25   60 1
    52   26   61 1
    53   26   62 1
    54   27   28 2
    55   27   29 am
    56   29   30 1
    57   29   63 1
    58   30   35 ar
    59   30   31 ar
    60   31   32 ar
    61   31   64 1
    62   32   33 ar
    63   32   65 1
    64   33   34 ar
    65   33   66 1
    66   34   35 ar
    67   34   36 1
    68   35   67 1
    69   36   37 1
    70   36   38 1
    71   36   39 1
@<TRIPOS>MOLECULE
CHEMBL215943__1
   68    72     0     0     0
SMALL
USER_CHARGES

@<TRIPOS>ATOM
      1 C1         -0.0483    1.5024    0.0098 C.3       1 <0>        -0.1276
      2 C2         -0.0195   -0.0043    0.0016 C.ar      1 <0>        -0.0366
      3 C3         -0.0178   -0.6868   -1.1996 C.ar      1 <0>        -0.1221
      4 C4          0.0085   -2.0667   -1.2158 C.ar      1 <0>        -0.0731
      5 C5          0.0330   -2.7811   -0.0158 C.ar      1 <0>        -0.1410
      6 C6          0.0314   -2.0969    1.1984 C.ar      1 <0>        -0.0362
      7 C7          0.0111   -0.7058    1.2063 C.ar      1 <0>        -0.0635
      8 C8          0.0158    0.0300    2.4946 C.ar      1 <0>        -0.0553
      9 C9          0.9293    1.0770    2.6951 C.ar      1 <0>        -0.0467
     10 C10         0.9551    1.7681    3.8654 C.ar      1 <0>        -0.1170
     11 C11         0.0589    1.4368    4.8939 C.ar      1 <0>         0.2111
     12 C12        -0.8687    0.3799    4.7012 C.ar      1 <0>        -0.2001
     13 C13        -0.8839   -0.3174    3.4865 C.ar      1 <0>        -0.0453
     14 C14        -1.7564    0.0690    5.7490 C.ar      1 <0>         0.2479
     15 N1         -1.6869    0.7718    6.8601 N.ar      1 <0>        -0.5684
     16 C15        -0.8035    1.7573    7.0067 C.ar      1 <0>         0.5623
     17 N2          0.0519    2.0930    6.0606 N.ar      1 <0>        -0.5576
     18 N3         -0.7822    2.4573    8.1995 N.pl3     1 <0>        -0.7040
     19 C16        -1.7195    2.1088    9.2701 C.3       1 <0>         0.1188
     20 C17        -1.4872    3.0285   10.4706 C.3       1 <0>        -0.0230
     21 N4         -2.4271    2.6791   11.5442 N.4       1 <0>        -0.3805
     22 C18        -3.8007    2.9572   11.1027 C.3       1 <0>        -0.0511
     23 C19        -4.7779    2.5921   12.2228 C.3       1 <0>         0.0367
     24 O1         -4.4442    3.3332   13.3998 O.3       1 <0>        -0.3561
     25 C20        -3.1064    3.1140   13.8559 C.3       1 <0>         0.0359
     26 C21        -2.1261    3.4800   12.7388 C.3       1 <0>        -0.0426
     27 C22         0.0602   -4.2590   -0.0337 C.2       1 <0>         0.5618
     28 O2          0.0816   -4.8792    1.0117 O.2       1 <0>        -0.5123
     29 N5          0.0613   -4.9189   -1.2088 N.am      1 <0>        -0.6683
     30 C23         0.1847   -6.3117   -1.2285 C.ar      1 <0>         0.1414
     31 C24         0.8894   -6.9337   -2.2514 C.ar      1 <0>        -0.1102
     32 C25         1.0099   -8.3092   -2.2677 C.ar      1 <0>        -0.0984
     33 C26         0.4298   -9.0675   -1.2671 C.ar      1 <0>        -0.0844
     34 C27        -0.2722   -8.4516   -0.2475 C.ar      1 <0>        -0.1647
     35 C28        -0.3920   -7.0758   -0.2225 C.ar      1 <0>        -0.0721
     36 C29        -0.9025   -9.2820    0.8407 C.3       1 <0>         0.5095
     37 F1         -0.6426  -10.6360    0.6040 F         1 <0>        -0.1749
     38 F2         -0.3653   -8.9135    2.0788 F         1 <0>        -0.1737
     39 F3         -2.2849   -9.0671    0.8497 F         1 <0>        -0.1759
     40 H1          0.9721    1.8854   -0.0029 H         1 <0>         0.0806
     41 H2         -0.5817    1.8604   -0.8708 H         1 <0>         0.0754
     42 H3         -0.5562    1.8513    0.9089 H         1 <0>         0.0730
     43 H4         -0.0375   -0.1384   -2.1297 H         1 <0>         0.1371
     44 H5          0.0097   -2.5949   -2.1579 H         1 <0>         0.1298
     45 H6          0.0504   -2.6442    2.1292 H         1 <0>         0.1405
     46 H7          1.6219    1.3369    1.9082 H         1 <0>         0.1398
     47 H8          1.6644    2.5707    4.0039 H         1 <0>         0.1435
     48 H9         -1.5883   -1.1204    3.3272 H         1 <0>         0.1410
     49 H10        -2.4780   -0.7275    5.6434 H         1 <0>         0.1829
     50 H11        -0.1467    3.1789    8.3270 H         1 <0>         0.4205
     51 H12        -2.7417    2.2301    8.9119 H         1 <0>         0.0871
     52 H13        -1.5600    1.0730    9.5698 H         1 <0>         0.0876
     53 H14        -0.4650    2.9072   10.8288 H         1 <0>         0.1408
     54 H15        -1.6467    4.0643   10.1709 H         1 <0>         0.1388
     55 H16        -3.8989    4.0165   10.8654 H         1 <0>         0.1412
     56 H17        -4.0250    2.3635   10.2165 H         1 <0>         0.1457
     57 H18        -5.7940    2.8378   11.9139 H         1 <0>         0.1434
     58 H19        -4.7086    1.5248   12.4329 H         1 <0>         0.0831
     59 H20        -2.9127    3.7373   14.7289 H         1 <0>         0.1435
     60 H21        -2.9799    2.0645   14.1218 H         1 <0>         0.0826
     61 H22        -1.1073    3.2744   13.0672 H         1 <0>         0.1445
     62 H23        -2.2249    4.5391   12.5009 H         1 <0>         0.1407
     63 H24        -0.0236   -4.4277   -2.0409 H         1 <0>         0.4145
     64 H25         1.3423   -6.3421   -3.0333 H         1 <0>         0.1377
     65 H26         1.5573   -8.7933   -3.0629 H         1 <0>         0.1430
     66 H27         0.5252  -10.1432   -1.2823 H         1 <0>         0.1425
     67 H28        -0.9370   -6.5950    0.5764 H         1 <0>         0.1500
     68 H29        -2.3364    1.6987   11.7648 H         1 <0>         0.4260
@<TRIPOS>BOND
     1    1    2 1
     2    1   40 1
     3    1   41 1
     4    1   42 1
     5    2    7 ar
     6    2    3 ar
     7    3    4 ar
     8    3   43 1
     9    4    5 ar
    10    4   44 1
    11    5    6 ar
    12    5   27 1
    13    6    7 ar
    14    6   45 1
    15    7    8 1
    16    8   13 ar
    17    8    9 ar
    18    9   10 ar
    19    9   46 1
    20   10   11 ar
    21   10   47 1
    22   11   17 ar
    23   11   12 ar
    24   12   13 ar
    25   12   14 ar
    26   13   48 1
    27   14   15 ar
    28   14   49 1
    29   15   16 ar
    30   16   17 ar
    31   16   18 1
    32   18   19 1
    33   18   50 1
    34   19   20 1
    35   19   51 1
    36   19   52 1
    37   20   21 1
    38   20   53 1
    39   20   54 1
    40   21   26 1
    41   21   22 1
    42   21   68 1
    43   22   23 1
    44   22   55 1
    45   22   56 1
    46   23   24 1
    47   23   57 1
    48   23   58 1
    49   24   25 1
    50   25   26 1
    51   25   59 1
    52   25   60 1
    53   26   61 1
    54   26   62 1
    55   27   28 2
    56   27   29 am
    57   29   30 1
    58   29   63 1
    59   30   35 ar
    60   30   31 ar
    61   31   32 ar
    62   31   64 1
    63   32   33 ar
    64   32   65 1
    65   33   34 ar
    66   33   66 1
    67   34   35 ar
    68   34   36 1
    69   35   67 1
    70   36   37 1
    71   36   38 1
    72   36   39 1
@<TRIPOS>MOLECULE
CHEMBL207600
   39    43     0     0     0
SMALL
USER_CHARGES

@<TRIPOS>ATOM
      1 C1          0.9687    1.5160   -0.4848 C.3       1 <0>         0.0657
      2 N1          0.6579    0.0916   -0.3413 N.pl3     1 <0>        -0.4543
      3 C2          0.5385   -0.7724   -1.3667 C.2       1 <0>         0.1929
      4 C3          0.2418   -2.0327   -0.8779 C.2       1 <0>        -0.2311
      5 C4          0.1793   -1.8983    0.5922 C.ar      1 <0>        -0.0496
      6 C5          0.4530   -0.5499    0.8661 C.ar      1 <0>         0.0864
      7 C6          0.4708   -0.1105    2.1857 C.ar      1 <0>        -0.0982
      8 C7          0.2241   -0.9991    3.2152 C.ar      1 <0>         0.0498
      9 C8         -0.0442   -2.3419    2.9392 C.ar      1 <0>         0.0295
     10 C9         -0.0724   -2.7885    1.6321 C.ar      1 <0>        -0.0668
     11 O1         -0.2499   -2.9966    4.1201 O.3       1 <0>        -0.3054
     12 C10         0.2971   -2.1365    5.1368 C.3       1 <0>         0.2138
     13 O2          0.1846   -0.8185    4.5688 O.3       1 <0>        -0.3064
     14 C11         0.0394   -3.2076   -1.6309 C.2       1 <0>         0.1833
     15 C12        -0.6569   -3.1519   -2.8307 C.2       1 <0>        -0.2915
     16 C13        -0.8426   -4.2434   -3.8056 C.2       1 <0>         0.1729
     17 N2         -1.5596   -3.7643   -4.7897 N.2       1 <0>        -0.2196
     18 N3         -1.8724   -2.4252   -4.5497 N.am      1 <0>        -0.5609
     19 C14        -1.3458   -2.0319   -3.3741 C.2       1 <0>         0.5335
     20 O3         -1.4398   -0.9246   -2.8715 O.2       1 <0>        -0.5216
     21 C15        -0.3154   -5.6230   -3.6921 C.ar      1 <0>         0.1417
     22 C16        -0.5672   -6.5544   -4.7011 C.ar      1 <0>         0.0910
     23 N4         -0.0947   -7.7818   -4.5949 N.ar      1 <0>        -0.4336
     24 C17         0.6159   -8.1296   -3.5352 C.ar      1 <0>         0.0618
     25 C18         0.8676   -7.2098   -2.5321 C.ar      1 <0>         0.0604
     26 N5          0.4041   -5.9774   -2.6311 N.ar      1 <0>        -0.4239
     27 H1          2.0495    1.6560   -0.4635 H         1 <0>         0.0805
     28 H2          0.5739    1.8803   -1.4333 H         1 <0>         0.0936
     29 H3          0.5141    2.0716    0.3354 H         1 <0>         0.0896
     30 H4          0.6557   -0.5206   -2.4104 H         1 <0>         0.1848
     31 H5          0.6781    0.9263    2.4061 H         1 <0>         0.1361
     32 H6         -0.2788   -3.8268    1.4186 H         1 <0>         0.1408
     33 H7         -0.2867   -2.2090    6.0543 H         1 <0>         0.1335
     34 H8          1.3417   -2.3838    5.3260 H         1 <0>         0.0866
     35 H9          0.4261   -4.1508   -1.2742 H         1 <0>         0.1594
     36 H10        -2.3951   -1.8615   -5.1413 H         1 <0>         0.4392
     37 H11        -1.1477   -6.2710   -5.5666 H         1 <0>         0.1793
     38 H12         1.0008   -9.1352   -3.4520 H         1 <0>         0.1766
     39 H13         1.4479   -7.4995   -1.6686 H         1 <0>         0.1800
@<TRIPOS>BOND
     1    1    2 1
     2    1   27 1
     3    1   28 1
     4    1   29 1
     5    2    6 1
     6    2    3 1
     7    3    4 2
     8    3   30 1
     9    4    5 1
    10    4   14 1
    11    5   10 ar
    12    5    6 ar
    13    6    7 ar
    14    7    8 ar
    15    7   31 1
    16    8   13 1
    17    8    9 ar
    18    9   10 ar
    19    9   11 1
    20   10   32 1
    21   11   12 1
    22   12   13 1
    23   12   33 1
    24   12   34 1
    25   14   15 2
    26   14   35 1
    27   15   19 1
    28   15   16 1
    29   16   17 2
    30   16   21 1
    31   17   18 1
    32   18   19 am
    33   18   36 1
    34   19   20 2
    35   21   26 ar
    36   21   22 ar
    37   22   23 ar
    38   22   37 1
    39   23   24 ar
    40   24   25 ar
    41   24   38 1
    42   25   26 ar
    43   25   39 1
@<TRIPOS>MOLECULE
CHEMBL207600__1
   38    42     0     0     0
SMALL
USER_CHARGES

@<TRIPOS>ATOM
      1 C1         -0.5506    1.4405   -0.0383 C.3       1 <0>         0.0743
      2 N1         -0.2842   -0.0000   -0.0381 N.pl3     1 <0>        -0.4630
      3 C2         -0.3250   -0.7825   -1.1283 C.2       1 <0>         0.1883
      4 C3         -0.0223   -2.0901   -0.7723 C.2       1 <0>        -0.1979
      5 C4          0.2221   -2.0700    0.6856 C.ar      1 <0>        -0.0539
      6 C5          0.0491   -0.7364    1.0843 C.ar      1 <0>         0.0837
      7 C6          0.2206   -0.3955    2.4217 C.ar      1 <0>        -0.1000
      8 C7          0.5632   -1.3652    3.3456 C.ar      1 <0>         0.0348
      9 C8          0.7388   -2.6913    2.9442 C.ar      1 <0>         0.0127
     10 C9          0.5619   -3.0435    1.6197 C.ar      1 <0>        -0.0603
     11 O1          1.0705   -3.4375    4.0390 O.3       1 <0>        -0.3100
     12 C10         1.4966   -2.4897    5.0354 C.3       1 <0>         0.2150
     13 O2          0.7851   -1.2865    4.6913 O.3       1 <0>        -0.3120
     14 C11         0.0387   -3.2050   -1.6239 C.2       1 <0>         0.0865
     15 C12         0.5422   -3.0674   -2.9200 C.2       1 <0>        -0.2054
     16 C13         0.5444   -4.0615   -4.0088 C.2       1 <0>        -0.0905
     17 N2          1.1280   -3.4626   -5.0326 N.2       1 <0>        -0.1649
     18 N3          1.4797   -2.2670   -4.7404 N.2       1 <0>        -0.4554
     19 C14         1.1688   -1.9337   -3.5049 C.2       1 <0>         0.3984
     20 O3          1.4045   -0.7389   -2.9046 O.3       1 <0>        -0.6426
     21 C15         0.0071   -5.4380   -3.9649 C.ar      1 <0>         0.2162
     22 C16         0.0936   -6.2613   -5.0910 C.ar      1 <0>         0.0486
     23 N4         -0.3873   -7.4887   -5.0452 N.ar      1 <0>        -0.4361
     24 C17        -0.9503   -7.9401   -3.9366 C.ar      1 <0>        -0.0019
     25 C18        -1.0386   -7.1291   -2.8188 C.ar      1 <0>         0.0612
     26 N5         -0.5562   -5.9003   -2.8509 N.ar      1 <0>        -0.4556
     27 H1          0.3791    1.9820   -0.2132 H         1 <0>         0.0752
     28 H2         -1.2635    1.6781   -0.8279 H         1 <0>         0.0872
     29 H3         -0.9657    1.7334    0.9261 H         1 <0>         0.0801
     30 H4         -0.5577   -0.4467   -2.1281 H         1 <0>         0.1880
     31 H5          0.0865    0.6281    2.7388 H         1 <0>         0.1291
     32 H6          0.6991   -4.0686    1.3086 H         1 <0>         0.1362
     33 H7          1.2147   -2.8293    6.0320 H         1 <0>         0.1268
     34 H8          2.5729   -2.3286    4.9750 H         1 <0>         0.0797
     35 H9         -0.3036   -4.1688   -1.2770 H         1 <0>         0.1368
     36 H10         0.5528   -5.8933   -5.9966 H         1 <0>         0.1712
     37 H11        -1.3431   -8.9456   -3.9038 H         1 <0>         0.1579
     38 H12        -1.4994   -7.5035   -1.9167 H         1 <0>         0.1612
@<TRIPOS>BOND
     1    1    2 1
     2    1   27 1
     3    1   28 1
     4    1   29 1
     5    2    6 1
     6    2    3 1
     7    3    4 2
     8    3   30 1
     9    4    5 1
    10    4   14 1
    11    5   10 ar
    12    5    6 ar
    13    6    7 ar
    14    7    8 ar
    15    7   31 1
    16    8   13 1
    17    8    9 ar
    18    9   10 ar
    19    9   11 1
    20   10   32 1
    21   11   12 1
    22   12   13 1
    23   12   33 1
    24   12   34 1
    25   14   15 2
    26   14   35 1
    27   15   19 1
    28   15   16 1
    29   16   17 2
    30   16   21 1
    31   17   18 1
    32   18   19 2
    33   19   20 1
    34   21   26 ar
    35   21   22 ar
    36   22   23 ar
    37   22   36 1
    38   23   24 ar
    39   24   25 ar
    40   24   37 1
    41   25   26 ar
    42   25   38 1
@<TRIPOS>MOLECULE
CHEMBL270277
   58    62     0     0     0
SMALL
USER_CHARGES

@<TRIPOS>ATOM
      1 C1         -1.1142    0.3155   -1.2910 C.3       1 <0>         0.0154
      2 O1         -0.4195   -0.8442   -0.8278 O.3       1 <0>        -0.2874
      3 C2          0.8408   -1.0385   -1.2999 C.ar      1 <0>         0.1345
      4 C3          1.3824   -0.1381   -2.1716 C.ar      1 <0>        -0.1503
      5 C4          2.6823   -0.3385   -2.6580 C.ar      1 <0>        -0.1157
      6 C5          3.2765    0.5734   -3.5620 C.ar      1 <0>         0.3438
      7 C6          4.5653    0.3082   -3.9985 C.ar      1 <0>        -0.2568
      8 C7          5.2256   -0.8251   -3.5444 C.ar      1 <0>         0.2208
      9 N1          4.6641   -1.6647   -2.7057 N.ar      1 <0>        -0.5011
     10 C8          3.4229   -1.4713   -2.2425 C.ar      1 <0>         0.1894
     11 C9          2.8386   -2.3802   -1.3452 C.ar      1 <0>        -0.2324
     12 C10         1.5734   -2.1584   -0.8823 C.ar      1 <0>         0.2092
     13 O2          1.0150   -3.0377   -0.0096 O.3       1 <0>        -0.2805
     14 C11         1.8103   -4.1595    0.3792 C.3       1 <0>         0.0128
     15 N2          2.5903    1.6982   -3.9985 N.pl3     1 <0>        -0.6195
     16 C12         3.1313    2.4985   -5.0074 C.ar      1 <0>         0.1144
     17 C13         3.7640    1.8996   -6.1030 C.ar      1 <0>        -0.1423
     18 C14         4.2996    2.6561   -7.0992 C.ar      1 <0>        -0.0789
     19 C15         4.2208    4.0545   -7.0354 C.ar      1 <0>        -0.0118
     20 C16         3.5825    4.6712   -5.9316 C.ar      1 <0>        -0.0411
     21 C17         3.0322    3.8699   -4.9175 C.ar      1 <0>        -0.1052
     22 C18         3.5041    6.0738   -5.8708 C.ar      1 <0>        -0.0708
     23 C19         4.0393    6.8329   -6.8681 C.ar      1 <0>        -0.1145
     24 C20         4.6687    6.2465   -7.9586 C.ar      1 <0>        -0.0579
     25 C21         4.7699    4.8665   -8.0594 C.ar      1 <0>        -0.1253
     26 C22         5.4398    4.2512   -9.2198 C.2       1 <0>         0.5665
     27 O3          5.4086    3.0448   -9.3707 O.2       1 <0>        -0.5130
     28 N3          6.0867    5.0256  -10.1132 N.am      1 <0>        -0.6636
     29 C23         6.7800    4.4373  -11.1762 C.ar      1 <0>         0.1403
     30 C24         7.9743    4.9908  -11.6191 C.ar      1 <0>        -0.1268
     31 C25         8.6567    4.4080  -12.6688 C.ar      1 <0>        -0.0903
     32 C26         8.1516    3.2734  -13.2793 C.ar      1 <0>        -0.0443
     33 C27         6.9618    2.7198  -12.8400 C.ar      1 <0>        -0.0919
     34 C28         6.2782    3.2953  -11.7870 C.ar      1 <0>        -0.1046
     35 Cl1         9.0117    2.5437  -14.5989 Cl        1 <0>        -0.0619
     36 H1         -0.5559    1.2091   -1.0119 H         1 <0>         0.0639
     37 H2         -1.2113    0.2717   -2.3758 H         1 <0>         0.0644
     38 H3         -2.1053    0.3503   -0.8386 H         1 <0>         0.1186
     39 H4          0.8124    0.7239   -2.4853 H         1 <0>         0.1561
     40 H5          5.0532    0.9801   -4.6890 H         1 <0>         0.1851
     41 H6          6.2293   -1.0220   -3.8910 H         1 <0>         0.2072
     42 H7          3.3903   -3.2493   -1.0184 H         1 <0>         0.1686
     43 H8          1.2471   -4.7799    1.0764 H         1 <0>         0.1203
     44 H9          2.0674   -4.7458   -0.5029 H         1 <0>         0.0686
     45 H10         2.7229   -3.8084    0.8609 H         1 <0>         0.0686
     46 H11         1.7351    1.9285   -3.6029 H         1 <0>         0.4244
     47 H12         3.8281    0.8229   -6.1583 H         1 <0>         0.1358
     48 H13         4.7854    2.1798   -7.9380 H         1 <0>         0.1811
     49 H14         2.5389    4.3255   -4.0716 H         1 <0>         0.1406
     50 H15         3.0185    6.5505   -5.0321 H         1 <0>         0.1397
     51 H16         3.9726    7.9092   -6.8097 H         1 <0>         0.1415
     52 H17         5.0842    6.8711   -8.7356 H         1 <0>         0.1350
     53 H18         6.0715    5.9909  -10.0192 H         1 <0>         0.4138
     54 H19         8.3688    5.8765  -11.1433 H         1 <0>         0.1372
     55 H20         9.5853    4.8383  -13.0138 H         1 <0>         0.1410
     56 H21         6.5697    1.8343  -13.3181 H         1 <0>         0.1392
     57 H22         5.3522    2.8600  -11.4414 H         1 <0>         0.1463
     58 H23         5.1611   -2.4450   -2.4142 H         1 <0>         0.4436
@<TRIPOS>BOND
     1    1    2 1
     2    1   36 1
     3    1   37 1
     4    1   38 1
     5    2    3 1
     6    3   12 ar
     7    3    4 ar
     8    4    5 ar
     9    4   39 1
    10    5   10 ar
    11    5    6 ar
    12    6    7 ar
    13    6   15 1
    14    7    8 ar
    15    7   40 1
    16    8    9 ar
    17    8   41 1
    18    9   10 ar
    19    9   58 1
    20   10   11 ar
    21   11   12 ar
    22   11   42 1
    23   12   13 1
    24   13   14 1
    25   14   43 1
    26   14   44 1
    27   14   45 1
    28   15   16 1
    29   15   46 1
    30   16   21 ar
    31   16   17 ar
    32   17   18 ar
    33   17   47 1
    34   18   19 ar
    35   18   48 1
    36   19   25 ar
    37   19   20 ar
    38   20   21 ar
    39   20   22 ar
    40   21   49 1
    41   22   23 ar
    42   22   50 1
    43   23   24 ar
    44   23   51 1
    45   24   25 ar
    46   24   52 1
    47   25   26 1
    48   26   27 2
    49   26   28 am
    50   28   29 1
    51   28   53 1
    52   29   34 ar
    53   29   30 ar
    54   30   31 ar
    55   30   54 1
    56   31   32 ar
    57   31   55 1
    58   32   33 ar
    59   32   35 1
    60   33   34 ar
    61   33   56 1
    62   34   57 1
@<TRIPOS>MOLECULE
CHEMBL446367
   55    59     0     0     0
SMALL
USER_CHARGES

@<TRIPOS>ATOM
      1 C1          6.7237    1.6509   -2.1139 C.3       1 <0>         0.0244
      2 O1          6.7838    0.2232   -2.1247 O.3       1 <0>        -0.2996
      3 C2          5.7098   -0.4361   -2.6353 C.ar      1 <0>         0.1275
      4 C3          4.6451    0.2733   -3.1111 C.ar      1 <0>        -0.1666
      5 C4          3.5372   -0.4070   -3.6383 C.ar      1 <0>        -0.0903
      6 C5          2.4176    0.2936   -4.1403 C.ar      1 <0>         0.1571
      7 C6          1.3625   -0.4457   -4.6449 C.ar      1 <0>        -0.1717
      8 C7          1.4311   -1.8332   -4.6443 C.ar      1 <0>         0.1413
      9 N1          2.4758   -2.4742   -4.1752 N.ar      1 <0>        -0.4685
     10 C8          3.5315   -1.8228   -3.6729 C.ar      1 <0>         0.1534
     11 C9          4.6419   -2.5247   -3.1754 C.ar      1 <0>        -0.1697
     12 C10         5.7094   -1.8378   -2.6731 C.ar      1 <0>         0.1426
     13 O2          6.7835   -2.5216   -2.1986 O.3       1 <0>        -0.3004
     14 C11         6.7250   -3.9479   -2.2637 C.3       1 <0>         0.0211
     15 O3          2.3782    1.6491   -4.1276 O.3       1 <0>        -0.2422
     16 C12         3.0390    2.3151   -5.1085 C.ar      1 <0>         0.3004
     17 C13         3.1063    3.6919   -5.0598 C.ar      1 <0>        -0.1789
     18 C14         3.7940    4.3663   -6.0820 C.ar      1 <0>         0.0056
     19 C15         3.9106    5.7652   -6.1088 C.ar      1 <0>        -0.0799
     20 C16         4.5858    6.3823   -7.1166 C.ar      1 <0>        -0.1017
     21 C17         5.1801    5.6651   -8.1482 C.ar      1 <0>        -0.0745
     22 C18         5.1032    4.2797   -8.1842 C.ar      1 <0>        -0.0999
     23 C19         4.3852    3.5932   -7.1142 C.ar      1 <0>        -0.1022
     24 C20         4.2609    2.2004   -7.0751 C.ar      1 <0>         0.1866
     25 N2          3.6102    1.6248   -6.0896 N.ar      1 <0>        -0.5162
     26 C21         5.7333    3.5177   -9.2791 C.2       1 <0>         0.5656
     27 O4          5.5753    2.3142   -9.3517 O.2       1 <0>        -0.5080
     28 N3          6.4841    4.1555  -10.1989 N.am      1 <0>        -0.6646
     29 C22         7.1569    3.4230  -11.1825 C.ar      1 <0>         0.1447
     30 C23         8.4048    3.8391  -11.6281 C.ar      1 <0>        -0.1292
     31 C24         9.0671    3.1138  -12.5990 C.ar      1 <0>        -0.0910
     32 C25         8.4884    1.9733  -13.1277 C.ar      1 <0>        -0.0464
     33 C26         7.2451    1.5565  -12.6855 C.ar      1 <0>        -0.0907
     34 C27         6.5808    2.2751  -11.7111 C.ar      1 <0>        -0.1059
     35 Cl1         9.3234    1.0642  -14.3484 Cl        1 <0>        -0.0665
     36 H1          6.6130    2.0176   -3.1344 H         1 <0>         0.0538
     37 H2          5.8708    1.9741   -1.5171 H         1 <0>         0.0580
     38 H3          7.6415    2.0499   -1.6820 H         1 <0>         0.1063
     39 H4          4.6554    1.3529   -3.0815 H         1 <0>         0.1386
     40 H5          0.4890    0.0539   -5.0372 H         1 <0>         0.1440
     41 H6          0.6017   -2.4001   -5.0406 H         1 <0>         0.1679
     42 H7          4.6532   -3.6045   -3.1946 H         1 <0>         0.1543
     43 H8          7.6433   -4.3683   -1.8537 H         1 <0>         0.1058
     44 H9          5.8725   -4.3034   -1.6850 H         1 <0>         0.0606
     45 H10         6.6147   -4.2599   -3.3023 H         1 <0>         0.0607
     46 H11         2.6401    4.2392   -4.2539 H         1 <0>         0.1521
     47 H12         3.4610    6.3558   -5.3242 H         1 <0>         0.1411
     48 H13         4.6616    7.4596   -7.1149 H         1 <0>         0.1393
     49 H14         5.7070    6.1914   -8.9303 H         1 <0>         0.1341
     50 H15         4.7048    1.5972   -7.8533 H         1 <0>         0.1995
     51 H16         6.5579    5.1225  -10.1788 H         1 <0>         0.4135
     52 H17         8.8567    4.7292  -11.2160 H         1 <0>         0.1366
     53 H18        10.0373    3.4371  -12.9461 H         1 <0>         0.1394
     54 H19         6.7957    0.6661  -13.0998 H         1 <0>         0.1390
     55 H20         5.6125    1.9469  -11.3631 H         1 <0>         0.1498
@<TRIPOS>BOND
     1    1    2 1
     2    1   36 1
     3    1   37 1
     4    1   38 1
     5    2    3 1
     6    3   12 ar
     7    3    4 ar
     8    4    5 ar
     9    4   39 1
    10    5   10 ar
    11    5    6 ar
    12    6    7 ar
    13    6   15 1
    14    7    8 ar
    15    7   40 1
    16    8    9 ar
    17    8   41 1
    18    9   10 ar
    19   10   11 ar
    20   11   12 ar
    21   11   42 1
    22   12   13 1
    23   13   14 1
    24   14   43 1
    25   14   44 1
    26   14   45 1
    27   15   16 1
    28   16   25 ar
    29   16   17 ar
    30   17   18 ar
    31   17   46 1
    32   18   23 ar
    33   18   19 ar
    34   19   20 ar
    35   19   47 1
    36   20   21 ar
    37   20   48 1
    38   21   22 ar
    39   21   49 1
    40   22   23 ar
    41   22   26 1
    42   23   24 ar
    43   24   25 ar
    44   24   50 1
    45   26   27 2
    46   26   28 am
    47   28   29 1
    48   28   51 1
    49   29   34 ar
    50   29   30 ar
    51   30   31 ar
    52   30   52 1
    53   31   32 ar
    54   31   53 1
    55   32   33 ar
    56   32   35 1
    57   33   34 ar
    58   33   54 1
    59   34   55 1
@<TRIPOS>MOLECULE
CHEMBL446367__1
   56    60     0     0     0
SMALL
USER_CHARGES

@<TRIPOS>ATOM
      1 C1          6.7237    1.6509   -2.1139 C.3       1 <0>         0.0159
      2 O1          6.7838    0.2232   -2.1247 O.3       1 <0>        -0.2837
      3 C2          5.7098   -0.4361   -2.6353 C.ar      1 <0>         0.1480
      4 C3          4.6451    0.2733   -3.1111 C.ar      1 <0>        -0.1494
      5 C4          3.5372   -0.4070   -3.6383 C.ar      1 <0>        -0.0769
      6 C5          2.4176    0.2936   -4.1403 C.ar      1 <0>         0.2745
      7 C6          1.3625   -0.4457   -4.6449 C.ar      1 <0>        -0.1778
      8 C7          1.4311   -1.8332   -4.6443 C.ar      1 <0>         0.2084
      9 N1          2.4758   -2.4742   -4.1752 N.ar      1 <0>        -0.4598
     10 C8          3.5315   -1.8228   -3.6729 C.ar      1 <0>         0.1729
     11 C9          4.6419   -2.5247   -3.1754 C.ar      1 <0>        -0.2343
     12 C10         5.7094   -1.8378   -2.6731 C.ar      1 <0>         0.2146
     13 O2          6.7835   -2.5216   -2.1986 O.3       1 <0>        -0.2772
     14 C11         6.7250   -3.9479   -2.2637 C.3       1 <0>         0.0115
     15 O3          2.3782    1.6491   -4.1276 O.3       1 <0>        -0.2410
     16 C12         3.0390    2.3151   -5.1085 C.ar      1 <0>         0.2757
     17 C13         3.1063    3.6919   -5.0598 C.ar      1 <0>        -0.1512
     18 C14         3.7940    4.3663   -6.0820 C.ar      1 <0>         0.0041
     19 C15         3.9106    5.7652   -6.1088 C.ar      1 <0>        -0.0807
     20 C16         4.5858    6.3823   -7.1166 C.ar      1 <0>        -0.0919
     21 C17         5.1801    5.6651   -8.1482 C.ar      1 <0>        -0.0630
     22 C18         5.1032    4.2797   -8.1842 C.ar      1 <0>        -0.1028
     23 C19         4.3852    3.5932   -7.1142 C.ar      1 <0>        -0.0918
     24 C20         4.2609    2.2004   -7.0751 C.ar      1 <0>         0.1932
     25 N2          3.6102    1.6248   -6.0896 N.ar      1 <0>        -0.5326
     26 C21         5.7333    3.5177   -9.2791 C.2       1 <0>         0.5668
     27 O4          5.5753    2.3142   -9.3517 O.2       1 <0>        -0.5140
     28 N3          6.4841    4.1555  -10.1989 N.am      1 <0>        -0.6605
     29 C22         7.1569    3.4230  -11.1825 C.ar      1 <0>         0.1387
     30 C23         8.4048    3.8391  -11.6281 C.ar      1 <0>        -0.1261
     31 C24         9.0671    3.1138  -12.5990 C.ar      1 <0>        -0.0900
     32 C25         8.4884    1.9733  -13.1277 C.ar      1 <0>        -0.0437
     33 C26         7.2451    1.5565  -12.6855 C.ar      1 <0>        -0.0921
     34 C27         6.5808    2.2751  -11.7111 C.ar      1 <0>        -0.1055
     35 Cl1         9.3234    1.0642  -14.3484 Cl        1 <0>        -0.0613
     36 H1          6.6130    2.0176   -3.1344 H         1 <0>         0.0632
     37 H2          5.8708    1.9741   -1.5171 H         1 <0>         0.0676
     38 H3          7.6415    2.0499   -1.6820 H         1 <0>         0.1204
     39 H4          4.6554    1.3529   -3.0815 H         1 <0>         0.1635
     40 H5          0.4890    0.0539   -5.0372 H         1 <0>         0.1902
     41 H6          0.6017   -2.4001   -5.0406 H         1 <0>         0.2177
     42 H7          4.6532   -3.6045   -3.1946 H         1 <0>         0.1722
     43 H8          7.6433   -4.3683   -1.8537 H         1 <0>         0.1221
     44 H9          5.8725   -4.3034   -1.6850 H         1 <0>         0.0698
     45 H10         6.6147   -4.2599   -3.3023 H         1 <0>         0.0699
     46 H11         2.6401    4.2392   -4.2539 H         1 <0>         0.1584
     47 H12         3.4610    6.3558   -5.3242 H         1 <0>         0.1463
     48 H13         4.6616    7.4596   -7.1149 H         1 <0>         0.1458
     49 H14         5.7070    6.1914   -8.9303 H         1 <0>         0.1399
     50 H15         4.7048    1.5972   -7.8533 H         1 <0>         0.2054
     51 H16         6.5579    5.1225  -10.1788 H         1 <0>         0.4147
     52 H17         8.8567    4.7292  -11.2160 H         1 <0>         0.1377
     53 H18        10.0373    3.4371  -12.9461 H         1 <0>         0.1416
     54 H19         6.7957    0.6661  -13.0998 H         1 <0>         0.1393
     55 H20         5.6125    1.9469  -11.3631 H         1 <0>         0.1483
     56 H21         2.4829   -3.4440   -4.1930 H         1 <0>         0.4491
@<TRIPOS>BOND
     1    1    2 1
     2    1   36 1
     3    1   37 1
     4    1   38 1
     5    2    3 1
     6    3   12 ar
     7    3    4 ar
     8    4    5 ar
     9    4   39 1
    10    5   10 ar
    11    5    6 ar
    12    6    7 ar
    13    6   15 1
    14    7    8 ar
    15    7   40 1
    16    8    9 ar
    17    8   41 1
    18    9   10 ar
    19    9   56 1
    20   10   11 ar
    21   11   12 ar
    22   11   42 1
    23   12   13 1
    24   13   14 1
    25   14   43 1
    26   14   44 1
    27   14   45 1
    28   15   16 1
    29   16   25 ar
    30   16   17 ar
    31   17   18 ar
    32   17   46 1
    33   18   23 ar
    34   18   19 ar
    35   19   20 ar
    36   19   47 1
    37   20   21 ar
    38   20   48 1
    39   21   22 ar
    40   21   49 1
    41   22   23 ar
    42   22   26 1
    43   23   24 ar
    44   24   25 ar
    45   24   50 1
    46   26   27 2
    47   26   28 am
    48   28   29 1
    49   28   51 1
    50   29   34 ar
    51   29   30 ar
    52   30   31 ar
    53   30   52 1
    54   31   32 ar
    55   31   53 1
    56   32   33 ar
    57   32   35 1
    58   33   34 ar
    59   33   54 1
    60   34   55 1
@<TRIPOS>MOLECULE
CHEMBL209555
   46    49     0     0     0
SMALL
USER_CHARGES

@<TRIPOS>ATOM
      1 C1          2.3693    1.4369   -0.0146 C.ar      1 <0>        -0.0436
      2 C2          1.1264    2.0566   -0.0052 C.ar      1 <0>        -0.2099
      3 C3         -0.0157    1.2812   -0.0024 C.ar      1 <0>         0.1379
      4 N1          0.0607   -0.0362   -0.0081 N.ar      1 <0>        -0.4768
      5 C4          1.2264   -0.6640   -0.0171 C.ar      1 <0>         0.3714
      6 C5          2.4176    0.0547   -0.0208 C.ar      1 <0>        -0.2121
      7 N2          1.2603   -2.0549   -0.0224 N.pl3     1 <0>        -0.6047
      8 C6          0.0815   -2.7781    0.0897 C.2       1 <0>         0.2889
      9 N3         -1.1548   -2.3278    0.1158 N.2       1 <0>        -0.5174
     10 C7         -2.1793   -3.1541    0.2275 C.2       1 <0>         0.0718
     11 C8         -1.8976   -4.4767    0.3130 C.2       1 <0>        -0.2220
     12 S1         -0.1150   -4.4447    0.2178 S.3       1 <0>         0.0893
     13 C9         -2.8319   -5.6516    0.4469 C.3       1 <0>        -0.0169
     14 C10        -3.2182   -6.1571   -0.9445 C.3       1 <0>        -0.0770
     15 C11        -4.1525   -7.3320   -0.8107 C.ar      1 <0>        -0.1226
     16 C12        -5.5099   -7.1534   -0.9717 C.ar      1 <0>        -0.0244
     17 C13        -6.3743   -8.2430   -0.8479 C.ar      1 <0>        -0.1451
     18 C14        -5.8580   -9.5087   -0.5612 C.ar      1 <0>        -0.0601
     19 C15        -4.4993   -9.6759   -0.4022 C.ar      1 <0>        -0.1571
     20 C16        -3.6448   -8.5914   -0.5315 C.ar      1 <0>         0.1306
     21 F1         -2.3131   -8.7619   -0.3801 F         1 <0>        -0.1289
     22 C17        -7.8299   -8.0576   -1.0190 C.2       1 <0>         0.5655
     23 O1         -8.2770   -6.9549   -1.2680 O.2       1 <0>        -0.5289
     24 N4         -8.6621   -9.1109   -0.8989 N.am      1 <0>        -0.6989
     25 C18       -10.1056   -8.9270   -1.0686 C.3       1 <0>         0.0769
     26 C19       -11.0290   -9.6239   -0.0673 C.3       1 <0>        -0.1915
     27 C20       -10.9264  -10.1429   -1.5029 C.3       1 <0>        -0.1878
     28 H1          3.2775    2.0212   -0.0213 H         1 <0>         0.1383
     29 H2          1.0542    3.1341    0.0002 H         1 <0>         0.1359
     30 H3         -0.9842    1.7589    0.0049 H         1 <0>         0.1587
     31 H4          3.3672   -0.4597   -0.0285 H         1 <0>         0.1350
     32 H5          2.1081   -2.5191   -0.1044 H         1 <0>         0.4346
     33 H6         -3.1964   -2.7915    0.2499 H         1 <0>         0.1719
     34 H7         -2.3351   -6.4498    0.9985 H         1 <0>         0.0797
     35 H8         -3.7291   -5.3431    0.9834 H         1 <0>         0.0929
     36 H9         -3.7149   -5.3589   -1.4961 H         1 <0>         0.0874
     37 H10        -2.3210   -6.4657   -1.4811 H         1 <0>         0.0818
     38 H11        -5.9040   -6.1726   -1.1930 H         1 <0>         0.1490
     39 H12        -6.5223  -10.3546   -0.4641 H         1 <0>         0.1352
     40 H13        -4.0990  -10.6541   -0.1802 H         1 <0>         0.1445
     41 H14        -8.3053   -9.9907   -0.7002 H         1 <0>         0.4013
     42 H15       -10.4143   -7.9513   -1.4437 H         1 <0>         0.1406
     43 H16       -10.5625  -10.2192    0.7176 H         1 <0>         0.0979
     44 H17       -11.9455   -9.1066    0.2165 H         1 <0>         0.1048
     45 H18       -11.7754   -9.9671   -2.1636 H         1 <0>         0.1060
     46 H19       -10.3924  -11.0797   -1.6625 H         1 <0>         0.0981
@<TRIPOS>BOND
     1    1    6 ar
     2    1    2 ar
     3    1   28 1
     4    2    3 ar
     5    2   29 1
     6    3    4 ar
     7    3   30 1
     8    4    5 ar
     9    5    6 ar
    10    5    7 1
    11    6   31 1
    12    7    8 1
    13    7   32 1
    14    8   12 1
    15    8    9 2
    16    9   10 1
    17   10   11 2
    18   10   33 1
    19   11   12 1
    20   11   13 1
    21   13   14 1
    22   13   34 1
    23   13   35 1
    24   14   15 1
    25   14   36 1
    26   14   37 1
    27   15   20 ar
    28   15   16 ar
    29   16   17 ar
    30   16   38 1
    31   17   18 ar
    32   17   22 1
    33   18   19 ar
    34   18   39 1
    35   19   20 ar
    36   19   40 1
    37   20   21 1
    38   22   23 2
    39   22   24 am
    40   24   25 1
    41   24   41 1
    42   25   27 1
    43   25   26 1
    44   25   42 1
    45   26   27 1
    46   26   43 1
    47   26   44 1
    48   27   45 1
    49   27   46 1
@<TRIPOS>MOLECULE
CHEMBL200425
   65    68     0     0     0
SMALL
USER_CHARGES

@<TRIPOS>ATOM
      1 C1          0.1764    1.4582    0.0304 C.3       1 <0>        -0.0473
      2 N1          0.1657   -0.0107    0.0177 N.4       1 <0>        -0.3862
      3 C2         -1.2219   -0.4887    0.0421 C.3       1 <0>        -0.0038
      4 C3         -1.2411   -2.0159   -0.0527 C.3       1 <0>        -0.1427
      5 C4         -0.4755   -2.6053    1.1354 C.3       1 <0>        -0.0978
      6 C5          0.9486   -2.0421    1.1426 C.3       1 <0>        -0.1439
      7 C6          0.8866   -0.5140    1.1931 C.3       1 <0>        -0.0065
      8 C7         -0.4225   -4.1288    1.0049 C.3       1 <0>         0.0543
      9 O1          0.1891   -4.6857    2.1702 O.3       1 <0>        -0.2951
     10 C8          0.3144   -6.0375    2.2146 C.ar      1 <0>         0.1637
     11 C9         -0.1333   -6.7908    1.1665 C.ar      1 <0>        -0.1764
     12 C10        -0.0044   -8.1863    1.2116 C.ar      1 <0>         0.1898
     13 C11         0.5908   -8.7949    2.3484 C.ar      1 <0>        -0.1533
     14 C12         1.0404   -8.0007    3.4070 C.ar      1 <0>        -0.1497
     15 C13         0.9074   -6.6418    3.3343 C.ar      1 <0>         0.1223
     16 O2          1.3493   -5.8678    4.3600 O.3       1 <0>        -0.3002
     17 C14         1.9436   -6.5412    5.4716 C.3       1 <0>         0.0194
     18 C15         0.7079  -10.2089    2.3650 C.ar      1 <0>         0.3712
     19 N2          0.2535  -10.8876    1.3139 N.ar      1 <0>        -0.5286
     20 C16        -0.2924  -10.2730    0.2802 C.ar      1 <0>         0.3266
     21 N3         -0.4266   -8.9684    0.2109 N.ar      1 <0>        -0.5130
     22 N4          1.2691  -10.8525    3.4247 N.2       1 <0>        -0.3898
     23 C17         0.5421  -11.1544    4.4629 C.2       1 <0>         0.1749
     24 C18        -0.9596  -10.9194    4.4931 C.3       1 <0>        -0.1620
     25 C19        -1.5983  -12.2083    4.9654 C.2       1 <0>         0.4105
     26 C20        -0.9614  -12.9762    6.0527 C.2       1 <0>         0.1123
     27 C21         0.3348  -12.7723    6.3940 C.2       1 <0>        -0.2777
     28 C22         1.1295  -11.7571    5.6917 C.2       1 <0>         0.4440
     29 O3          2.2247  -11.4205    6.1010 O.2       1 <0>        -0.3943
     30 O4         -1.6857  -13.9020    6.7228 O.3       1 <0>        -0.2682
     31 C23        -1.0621  -14.5232    7.8486 C.3       1 <0>         0.0045
     32 C24        -2.1159  -14.8143    8.9190 C.3       1 <0>         0.0692
     33 F1         -2.6352  -13.6085    9.4023 F         1 <0>        -0.2021
     34 C25        -0.4058  -15.8336    7.4093 C.3       1 <0>         0.0404
     35 F2          0.6345  -15.5574    6.5156 F         1 <0>        -0.2020
     36 O5         -2.6204  -12.6042    4.4570 O.2       1 <0>        -0.3816
     37 H1          1.2063    1.8143    0.0056 H         1 <0>         0.1243
     38 H2         -0.3587    1.8329   -0.8422 H         1 <0>         0.1242
     39 H3         -0.3105    1.8172    0.9371 H         1 <0>         0.1220
     40 H4         -1.6968   -0.1769    0.9723 H         1 <0>         0.1307
     41 H5         -1.7663   -0.0658   -0.8023 H         1 <0>         0.1344
     42 H6         -2.2721   -2.3689   -0.0327 H         1 <0>         0.1176
     43 H7         -0.7666   -2.3288   -0.9828 H         1 <0>         0.0934
     44 H8         -0.9790   -2.3351    2.0636 H         1 <0>         0.1035
     45 H9          1.4826   -2.4138    2.0170 H         1 <0>         0.1213
     46 H10         1.4685   -2.3555    0.2373 H         1 <0>         0.0894
     47 H11         1.8989   -0.1097    1.1985 H         1 <0>         0.1327
     48 H12         0.3668   -0.2016    2.0988 H         1 <0>         0.1301
     49 H13        -1.4347   -4.5202    0.9035 H         1 <0>         0.0793
     50 H14         0.1610   -4.3979    0.1245 H         1 <0>         0.0745
     51 H15        -0.5842   -6.3144    0.3086 H         1 <0>         0.1563
     52 H16         1.4935   -8.4570    4.2746 H         1 <0>         0.1502
     53 H17         2.2521   -5.8087    6.2175 H         1 <0>         0.1109
     54 H18         1.2182   -7.2251    5.9122 H         1 <0>         0.0600
     55 H19         2.8138   -7.1034    5.1328 H         1 <0>         0.0634
     56 H20        -0.6447  -10.8713   -0.5470 H         1 <0>         0.2075
     57 H21        -1.1960  -10.1115    5.1855 H         1 <0>         0.1524
     58 H22         0.7839  -13.3597    7.1812 H         1 <0>         0.1714
     59 H23        -0.3034  -13.8560    8.2576 H         1 <0>         0.1118
     60 H24        -2.9201  -15.4084    8.4851 H         1 <0>         0.0976
     61 H25        -1.6576  -15.3671    9.7391 H         1 <0>         0.1093
     62 H26        -0.0073  -16.3508    8.2821 H         1 <0>         0.1058
     63 H27        -1.1472  -16.4651    6.9199 H         1 <0>         0.0986
     64 H28        -1.3173  -10.6697    3.4942 H         1 <0>         0.1222
     65 H29         0.6188   -0.3421   -0.8208 H         1 <0>         0.4247
@<TRIPOS>BOND
     1    1    2 1
     2    1   37 1
     3    1   38 1
     4    1   39 1
     5    2    7 1
     6    2    3 1
     7    2   65 1
     8    3    4 1
     9    3   40 1
    10    3   41 1
    11    4    5 1
    12    4   42 1
    13    4   43 1
    14    5    6 1
    15    5    8 1
    16    5   44 1
    17    6    7 1
    18    6   45 1
    19    6   46 1
    20    7   47 1
    21    7   48 1
    22    8    9 1
    23    8   49 1
    24    8   50 1
    25    9   10 1
    26   10   15 ar
    27   10   11 ar
    28   11   12 ar
    29   11   51 1
    30   12   21 ar
    31   12   13 ar
    32   13   14 ar
    33   13   18 ar
    34   14   15 ar
    35   14   52 1
    36   15   16 1
    37   16   17 1
    38   17   53 1
    39   17   54 1
    40   17   55 1
    41   18   19 ar
    42   18   22 1
    43   19   20 ar
    44   20   21 ar
    45   20   56 1
    46   22   23 2
    47   23   28 1
    48   23   24 1
    49   24   57 1
    50   24   64 1
    51   24   25 1
    52   25   36 2
    53   25   26 1
    54   26   30 1
    55   26   27 2
    56   27   28 1
    57   27   58 1
    58   28   29 2
    59   30   31 1
    60   31   32 1
    61   31   34 1
    62   31   59 1
    63   32   33 1
    64   32   60 1
    65   32   61 1
    66   34   35 1
    67   34   62 1
    68   34   63 1
@<TRIPOS>MOLECULE
CHEMBL200425__1
   65    68     0     0     0
SMALL
USER_CHARGES

@<TRIPOS>ATOM
      1 C1          0.2262    1.6033    0.2585 C.3       1 <0>        -0.0472
      2 N1          0.2222    0.1348    0.2207 N.4       1 <0>        -0.3862
      3 C2         -1.1635   -0.3490    0.2043 C.3       1 <0>        -0.0036
      4 C3         -1.1739   -1.8743    0.0833 C.3       1 <0>        -0.1428
      5 C4         -0.4340   -2.4809    1.2791 C.3       1 <0>        -0.0975
      6 C5          0.9871   -1.9123    1.3293 C.3       1 <0>        -0.1438
      7 C6          0.9174   -0.3855    1.4042 C.3       1 <0>        -0.0063
      8 C7         -0.3714   -4.0017    1.1241 C.3       1 <0>         0.0544
      9 O1          0.2150   -4.5759    2.2939 O.3       1 <0>        -0.2955
     10 C8          0.3450   -5.9278    2.3185 C.ar      1 <0>         0.1612
     11 C9         -0.0747   -6.6650    1.2476 C.ar      1 <0>        -0.1750
     12 C10         0.0592   -8.0605    1.2721 C.ar      1 <0>         0.1903
     13 C11         0.6300   -8.6860    2.4122 C.ar      1 <0>        -0.1525
     14 C12         1.0512   -7.9082    3.4943 C.ar      1 <0>        -0.1503
     15 C13         0.9141   -6.5487    3.4415 C.ar      1 <0>         0.1224
     16 O2          1.3285   -5.7905    4.4903 O.3       1 <0>        -0.2994
     17 C14         1.8993   -6.4804    5.6040 C.3       1 <0>         0.0209
     18 C15         0.7528  -10.0996    2.4077 C.ar      1 <0>         0.3717
     19 N2          0.3262  -10.7622    1.3348 N.ar      1 <0>        -0.5125
     20 C16        -0.1979  -10.1322    0.2991 C.ar      1 <0>         0.3290
     21 N3         -0.3360   -8.8271    0.2487 N.ar      1 <0>        -0.5146
     22 N4          1.2917  -10.7589    3.4693 N.2       1 <0>        -0.3919
     23 C17         0.5420  -11.0802    4.4853 C.2       1 <0>         0.1738
     24 C18         1.1159  -11.7068    5.7460 C.3       1 <0>        -0.1087
     25 C19         0.5728  -10.9169    6.9178 C.2       1 <0>         0.4052
     26 C20        -0.8348  -10.4742    6.9028 C.2       1 <0>         0.1080
     27 C21        -1.5481  -10.4320    5.7505 C.2       1 <0>        -0.2814
     28 C22        -0.9295  -10.8507    4.4866 C.2       1 <0>         0.3855
     29 O3         -1.5957  -11.0061    3.4804 O.2       1 <0>        -0.3975
     30 O4         -1.4256  -10.1035    8.0622 O.3       1 <0>        -0.2677
     31 C23        -2.8231   -9.8089    8.0131 C.3       1 <0>         0.0039
     32 C24        -3.4817  -10.2405    9.3249 C.3       1 <0>         0.0696
     33 F1         -3.4009  -11.6314    9.4517 F         1 <0>        -0.1997
     34 C25        -3.0205   -8.3048    7.8140 C.3       1 <0>         0.0412
     35 F2         -2.5191   -7.9303    6.5628 F         1 <0>        -0.2046
     36 O5          1.2853  -10.6516    7.8569 O.2       1 <0>        -0.3805
     37 H1          1.2549    1.9637    0.2640 H         1 <0>         0.1242
     38 H2         -0.2898    1.9907   -0.6200 H         1 <0>         0.1241
     39 H3         -0.2833    1.9450    1.1594 H         1 <0>         0.1218
     40 H4         -1.6615   -0.0549    1.1283 H         1 <0>         0.1305
     41 H5         -1.6897    0.0861   -0.6453 H         1 <0>         0.1343
     42 H6         -2.2036   -2.2316    0.0731 H         1 <0>         0.1174
     43 H7         -0.6763   -2.1695   -0.8405 H         1 <0>         0.0935
     44 H8         -0.9603   -2.2284    2.1996 H         1 <0>         0.1031
     45 H9          1.5020   -2.2968    2.2097 H         1 <0>         0.1212
     46 H10         1.5295   -2.2083    0.4314 H         1 <0>         0.0894
     47 H11         1.9275    0.0225    1.4403 H         1 <0>         0.1326
     48 H12         0.3751   -0.0906    2.3025 H         1 <0>         0.1299
     49 H13        -1.3793   -4.3953    0.9923 H         1 <0>         0.0785
     50 H14         0.2338   -4.2536    0.2533 H         1 <0>         0.0742
     51 H15        -0.5073   -6.1758    0.3874 H         1 <0>         0.1555
     52 H16         1.4858   -8.3774    4.3646 H         1 <0>         0.1445
     53 H17         2.1871   -5.7595    6.3692 H         1 <0>         0.1106
     54 H18         1.1667   -7.1745    6.0158 H         1 <0>         0.0571
     55 H19         2.7797   -7.0334    5.2764 H         1 <0>         0.0618
     56 H20        -0.5281  -10.7177   -0.5462 H         1 <0>         0.2055
     57 H21         0.8007  -12.7476    5.8208 H         1 <0>         0.1572
     58 H22        -2.5715  -10.0869    5.7622 H         1 <0>         0.1637
     59 H23        -3.2791  -10.3483    7.1829 H         1 <0>         0.1105
     60 H24        -2.9673   -9.7688   10.1621 H         1 <0>         0.0975
     61 H25        -4.5283   -9.9360    9.3234 H         1 <0>         0.1078
     62 H26        -4.0833   -8.0680    7.8652 H         1 <0>         0.1045
     63 H27        -2.4892   -7.7620    8.5957 H         1 <0>         0.0984
     64 H28         2.2042  -11.6483    5.7285 H         1 <0>         0.1477
     65 H29         0.6963   -0.1806   -0.6123 H         1 <0>         0.4248
@<TRIPOS>BOND
     1    1    2 1
     2    1   37 1
     3    1   38 1
     4    1   39 1
     5    2    7 1
     6    2    3 1
     7    2   65 1
     8    3    4 1
     9    3   40 1
    10    3   41 1
    11    4    5 1
    12    4   42 1
    13    4   43 1
    14    5    6 1
    15    5    8 1
    16    5   44 1
    17    6    7 1
    18    6   45 1
    19    6   46 1
    20    7   47 1
    21    7   48 1
    22    8    9 1
    23    8   49 1
    24    8   50 1
    25    9   10 1
    26   10   15 ar
    27   10   11 ar
    28   11   12 ar
    29   11   51 1
    30   12   21 ar
    31   12   13 ar
    32   13   14 ar
    33   13   18 ar
    34   14   15 ar
    35   14   52 1
    36   15   16 1
    37   16   17 1
    38   17   53 1
    39   17   54 1
    40   17   55 1
    41   18   19 ar
    42   18   22 1
    43   19   20 ar
    44   20   21 ar
    45   20   56 1
    46   22   23 2
    47   23   28 1
    48   23   24 1
    49   24   57 1
    50   24   64 1
    51   24   25 1
    52   25   36 2
    53   25   26 1
    54   26   30 1
    55   26   27 2
    56   27   28 1
    57   27   58 1
    58   28   29 2
    59   30   31 1
    60   31   32 1
    61   31   34 1
    62   31   59 1
    63   32   33 1
    64   32   60 1
    65   32   61 1
    66   34   35 1
    67   34   62 1
    68   34   63 1
@<TRIPOS>MOLECULE
CHEMBL498214
   53    57     0     0     0
SMALL
USER_CHARGES

@<TRIPOS>ATOM
      1 C1          0.5290   -4.3525   -3.4577 C.3       1 <0>        -0.0469
      2 N1          0.3473   -3.6462   -2.1825 N.4       1 <0>        -0.3858
      3 C2          1.0923   -4.3450   -1.1276 C.3       1 <0>        -0.0226
      4 C3          0.9978   -3.5472    0.1772 C.3       1 <0>         0.0696
      5 N2         -0.4232   -3.3224    0.4844 N.am      1 <0>        -0.6309
      6 C4         -1.2834   -2.7745   -0.5757 C.3       1 <0>         0.0890
      7 C5         -1.0812   -3.6088   -1.8449 C.3       1 <0>        -0.0201
      8 C6         -0.9228   -3.6107    1.7025 C.2       1 <0>         0.5811
      9 O1         -2.0808   -3.3471    1.9625 O.2       1 <0>        -0.5033
     10 C7         -0.0637   -4.2466    2.7214 C.ar      1 <0>        -0.1559
     11 C8          1.2383   -3.7738    2.9310 C.ar      1 <0>        -0.1023
     12 C9          2.0422   -4.3533    3.8699 C.ar      1 <0>        -0.0969
     13 C10         1.5746   -5.4206    4.6275 C.ar      1 <0>         0.0665
     14 C11         0.2692   -5.9091    4.4306 C.ar      1 <0>         0.0630
     15 C12        -0.5516   -5.3104    3.4745 C.ar      1 <0>        -0.0064
     16 N3          0.0903   -6.9382    5.2966 N.2       1 <0>        -0.5326
     17 C13         1.1833   -7.1128    6.0030 C.2       1 <0>         0.4120
     18 N4          2.1304   -6.1966    5.6245 N.pl3     1 <0>        -0.5770
     19 H1          3.0250   -6.1101    5.9894 H         1 <0>         0.4403
     20 C14         1.3644   -8.1376    7.0443 C.2       1 <0>        -0.3114
     21 C15         0.3779   -9.1024    7.2594 C.2       1 <0>         0.3802
     22 C16         0.6060  -10.1034    8.3095 C.ar      1 <0>        -0.1569
     23 C17        -0.3407  -11.0966    8.5756 C.ar      1 <0>        -0.0482
     24 C18        -0.1015  -12.0154    9.5586 C.ar      1 <0>        -0.1475
     25 C19         1.0741  -11.9699   10.2947 C.ar      1 <0>        -0.0439
     26 C20         2.0207  -10.9986   10.0488 C.ar      1 <0>        -0.1648
     27 C21         1.7987  -10.0531    9.0525 C.ar      1 <0>         0.2183
     28 N5          2.7350   -9.0732    8.7900 N.am      1 <0>        -0.6358
     29 H2          3.5538   -9.0497    9.3095 H         1 <0>         0.4210
     30 C22         2.5419   -8.1544    7.8293 C.2       1 <0>         0.5818
     31 O2          3.3998   -7.3116    7.6319 O.2       1 <0>        -0.5635
     32 N6         -0.7734   -9.1145    6.5101 N.pl3     1 <0>        -0.8012
     33 H3         -0.0171   -3.8303   -4.2433 H         1 <0>         0.1257
     34 H4          1.5891   -4.3810   -3.7094 H         1 <0>         0.1256
     35 H5          0.1497   -5.3703   -3.3665 H         1 <0>         0.1219
     36 H6          0.6668   -5.3373   -0.9784 H         1 <0>         0.1342
     37 H7          2.1377   -4.4381   -1.4217 H         1 <0>         0.1447
     38 H8          1.4626   -4.1112    0.9858 H         1 <0>         0.1457
     39 H9          1.5028   -2.5886    0.0578 H         1 <0>         0.0990
     40 H10        -2.3268   -2.8277   -0.2648 H         1 <0>         0.1366
     41 H11        -1.0088   -1.7380   -0.7711 H         1 <0>         0.0961
     42 H12        -1.6375   -3.1595   -2.6676 H         1 <0>         0.1447
     43 H13        -1.4410   -4.6234   -1.6741 H         1 <0>         0.1336
     44 H14         1.6087   -2.9453    2.3456 H         1 <0>         0.1354
     45 H15         3.0444   -3.9817    4.0242 H         1 <0>         0.1342
     46 H16        -1.5567   -5.6728    3.3168 H         1 <0>         0.1389
     47 H17        -1.2578  -11.1375    8.0068 H         1 <0>         0.1335
     48 H18        -0.8332  -12.7826    9.7644 H         1 <0>         0.1376
     49 H19         1.2489  -12.7029   11.0683 H         1 <0>         0.1401
     50 H20         2.9320  -10.9715   10.6278 H         1 <0>         0.1424
     51 H21        -0.9491   -8.3989    5.8793 H         1 <0>         0.4315
     52 H22        -1.4107   -9.8387    6.6119 H         1 <0>         0.4042
     53 H23         0.6960   -2.7034   -2.2690 H         1 <0>         0.4255
@<TRIPOS>BOND
     1    1    2 1
     2    1   33 1
     3    1   34 1
     4    1   35 1
     5    2    7 1
     6    2    3 1
     7    2   53 1
     8    3    4 1
     9    3   36 1
    10    3   37 1
    11    4    5 1
    12    4   38 1
    13    4   39 1
    14    5    6 1
    15    5    8 am
    16    6    7 1
    17    6   40 1
    18    6   41 1
    19    7   42 1
    20    7   43 1
    21    8    9 2
    22    8   10 1
    23   10   15 ar
    24   10   11 ar
    25   11   12 ar
    26   11   44 1
    27   12   13 ar
    28   12   45 1
    29   13   18 1
    30   13   14 ar
    31   14   15 ar
    32   14   16 1
    33   15   46 1
    34   16   17 2
    35   17   18 1
    36   17   20 1
    37   18   19 1
    38   20   30 1
    39   20   21 2
    40   21   22 1
    41   21   32 1
    42   22   27 ar
    43   22   23 ar
    44   23   24 ar
    45   23   47 1
    46   24   25 ar
    47   24   48 1
    48   25   26 ar
    49   25   49 1
    50   26   27 ar
    51   26   50 1
    52   27   28 1
    53   28   29 1
    54   28   30 am
    55   30   31 2
    56   32   51 1
    57   32   52 1
@<TRIPOS>MOLECULE
CHEMBL498214__1
   52    56     0     0     0
SMALL
USER_CHARGES

@<TRIPOS>ATOM
      1 C1          0.7595   -4.2118   -3.6435 C.3       1 <0>         0.0244
      2 N1          0.4988   -3.6079   -2.3300 N.3       1 <0>        -0.5434
      3 C2          1.2417   -4.3065   -1.2726 C.3       1 <0>         0.0384
      4 C3          1.0882   -3.5410    0.0460 C.3       1 <0>         0.0977
      5 N2         -0.3459   -3.3538    0.3133 N.am      1 <0>        -0.6093
      6 C4         -1.1839   -2.7844   -0.7528 C.3       1 <0>         0.1168
      7 C5         -0.9410   -3.5796   -2.0400 C.3       1 <0>         0.0401
      8 C6         -0.8779   -3.6944    1.5039 C.2       1 <0>         0.5686
      9 O1         -2.0487   -3.4622    1.7353 O.2       1 <0>        -0.5329
     10 C7         -0.0389   -4.3498    2.5271 C.ar      1 <0>        -0.1382
     11 C8          1.2443   -3.8572    2.7984 C.ar      1 <0>        -0.0866
     12 C9          2.0295   -4.4544    3.7421 C.ar      1 <0>        -0.1063
     13 C10         1.5615   -5.5592    4.4432 C.ar      1 <0>         0.0637
     14 C11         0.2748   -6.0680    4.1841 C.ar      1 <0>         0.0578
     15 C12        -0.5272   -5.4514    3.2234 C.ar      1 <0>        -0.0130
     16 N3          0.0907   -7.1327    5.0048 N.2       1 <0>        -0.5297
     17 C13         1.1634   -7.3102    5.7411 C.2       1 <0>         0.3964
     18 N4          2.1014   -6.3602    5.4292 N.pl3     1 <0>        -0.5787
     19 H1          2.9812   -6.2682    5.8273 H         1 <0>         0.4370
     20 C14         1.3331   -8.3695    6.7493 C.2       1 <0>        -0.3023
     21 C15         0.3621   -9.3626    6.8950 C.2       1 <0>         0.3717
     22 C16         0.5779  -10.3974    7.9145 C.ar      1 <0>        -0.1521
     23 C17        -0.3543  -11.4198    8.1114 C.ar      1 <0>        -0.0486
     24 C18        -0.1270  -12.3697    9.0673 C.ar      1 <0>        -0.1500
     25 C19         1.0222  -12.3269    9.8440 C.ar      1 <0>        -0.0483
     26 C20         1.9542  -11.3270    9.6665 C.ar      1 <0>        -0.1658
     27 C21         1.7440  -10.3496    8.6989 C.ar      1 <0>         0.2172
     28 N5          2.6660   -9.3407    8.5047 N.am      1 <0>        -0.6370
     29 H2          3.4664   -9.3193    9.0522 H         1 <0>         0.4191
     30 C22         2.4840   -8.3906    7.5726 C.2       1 <0>         0.5801
     31 O2          3.3287   -7.5228    7.4358 O.2       1 <0>        -0.5612
     32 N6         -0.7632   -9.3711    6.1072 N.pl3     1 <0>        -0.8017
     33 H3          0.2586   -3.6295   -4.4169 H         1 <0>         0.0713
     34 H4          1.8329   -4.2202   -3.8329 H         1 <0>         0.0707
     35 H5          0.3805   -5.2337   -3.6553 H         1 <0>         0.0262
     36 H6          0.8459   -5.3154   -1.1557 H         1 <0>         0.0400
     37 H7          2.2965   -4.3582   -1.5425 H         1 <0>         0.0892
     38 H8          1.5400   -4.1133    0.8563 H         1 <0>         0.1045
     39 H9          1.5754   -2.5694   -0.0358 H         1 <0>         0.0809
     40 H10        -2.2343   -2.8563   -0.4707 H         1 <0>         0.0976
     41 H11        -0.9152   -1.7400   -0.9115 H         1 <0>         0.0779
     42 H12        -1.4692   -3.1042   -2.8665 H         1 <0>         0.0897
     43 H13        -1.3065   -4.5986   -1.9124 H         1 <0>         0.0395
     44 H14         1.6150   -2.9994    2.2570 H         1 <0>         0.1387
     45 H15         3.0173   -4.0673    3.9440 H         1 <0>         0.1311
     46 H16        -1.5179   -5.8292    3.0181 H         1 <0>         0.1366
     47 H17        -1.2510  -11.4590    7.5107 H         1 <0>         0.1333
     48 H18        -0.8476  -13.1597    9.2197 H         1 <0>         0.1356
     49 H19         1.1879  -13.0847   10.5956 H         1 <0>         0.1376
     50 H20         2.8450  -11.3023   10.2766 H         1 <0>         0.1405
     51 H21        -0.9338   -8.6364    5.4973 H         1 <0>         0.4331
     52 H22        -1.3872  -10.1117    6.1609 H         1 <0>         0.4020
@<TRIPOS>BOND
     1    1    2 1
     2    1   33 1
     3    1   34 1
     4    1   35 1
     5    2    7 1
     6    2    3 1
     7    3    4 1
     8    3   36 1
     9    3   37 1
    10    4    5 1
    11    4   38 1
    12    4   39 1
    13    5    6 1
    14    5    8 am
    15    6    7 1
    16    6   40 1
    17    6   41 1
    18    7   42 1
    19    7   43 1
    20    8    9 2
    21    8   10 1
    22   10   15 ar
    23   10   11 ar
    24   11   12 ar
    25   11   44 1
    26   12   13 ar
    27   12   45 1
    28   13   18 1
    29   13   14 ar
    30   14   15 ar
    31   14   16 1
    32   15   46 1
    33   16   17 2
    34   17   18 1
    35   17   20 1
    36   18   19 1
    37   20   30 1
    38   20   21 2
    39   21   22 1
    40   21   32 1
    41   22   27 ar
    42   22   23 ar
    43   23   24 ar
    44   23   47 1
    45   24   25 ar
    46   24   48 1
    47   25   26 ar
    48   25   49 1
    49   26   27 ar
    50   26   50 1
    51   27   28 1
    52   28   29 1
    53   28   30 am
    54   30   31 2
    55   32   51 1
    56   32   52 1
@<TRIPOS>MOLECULE
CHEMBL440940
   77    81     0     0     0
SMALL
USER_CHARGES

@<TRIPOS>ATOM
      1 C1          0.2481    1.4955    0.0307 C.3       1 <0>        -0.0473
      2 N1          0.2314    0.0266    0.0217 N.4       1 <0>        -0.3862
      3 C2         -1.1583   -0.4455    0.0390 C.3       1 <0>        -0.0038
      4 C3         -1.1834   -1.9727   -0.0520 C.3       1 <0>        -0.1427
      5 C4         -0.4275   -2.5623    1.1423 C.3       1 <0>        -0.0977
      6 C5          0.9989   -2.0050    1.1566 C.3       1 <0>        -0.1439
      7 C6          0.9430   -0.4765    1.2028 C.3       1 <0>        -0.0064
      8 C7         -0.3801   -4.0863    1.0160 C.3       1 <0>         0.0543
      9 O1          0.2221   -4.6427    2.1864 O.3       1 <0>        -0.2952
     10 C8          0.3414   -5.9950    2.2351 C.ar      1 <0>         0.1637
     11 C9         -0.1031   -6.7491    1.1863 C.ar      1 <0>        -0.1766
     12 C10         0.0197   -8.1450    1.2357 C.ar      1 <0>         0.1899
     13 C11         0.6054   -8.7532    2.3777 C.ar      1 <0>        -0.1530
     14 C12         1.0520   -7.9581    3.4369 C.ar      1 <0>        -0.1488
     15 C13         0.9251   -6.5988    3.3599 C.ar      1 <0>         0.1215
     16 O2          1.3642   -5.8240    4.3863 O.3       1 <0>        -0.3003
     17 C14         1.9489   -6.4970    5.5031 C.3       1 <0>         0.0197
     18 C15         0.7165  -10.1675    2.3987 C.ar      1 <0>         0.3719
     19 N2          0.2656  -10.8471    1.3466 N.ar      1 <0>        -0.5297
     20 C16        -0.2714  -10.2329    0.3080 C.ar      1 <0>         0.3267
     21 N3         -0.3997   -8.9279    0.2345 N.ar      1 <0>        -0.5132
     22 N4          1.2686  -10.8107    3.4634 N.2       1 <0>        -0.3929
     23 C17         0.5302  -11.1223    4.4906 C.2       1 <0>         0.1755
     24 C18        -0.9757  -10.9136    4.4957 C.3       1 <0>        -0.1626
     25 C19        -1.5993  -12.2120    4.9617 C.2       1 <0>         0.4037
     26 C20        -0.9669  -12.9656    6.0616 C.2       1 <0>         0.1211
     27 C21         0.3198  -12.7381    6.4232 C.2       1 <0>        -0.2995
     28 C22         1.1080  -11.7111    5.7307 C.2       1 <0>         0.4431
     29 O3          2.1904  -11.3542    6.1565 O.2       1 <0>        -0.4004
     30 O4         -1.6857  -13.9020    6.7228 O.3       1 <0>        -0.2649
     31 C23        -1.0242  -14.6015    7.7788 C.3       1 <0>         0.0220
     32 C24        -1.9885  -15.6118    8.4037 C.3       1 <0>         0.1263
     33 N5         -2.3305  -16.6368    7.4145 N.pl3     1 <0>        -0.6349
     34 C25        -1.5169  -17.8503    7.3058 C.3       1 <0>         0.0910
     35 C26        -3.4322  -16.4572    6.5750 C.ar      1 <0>         0.2117
     36 C27        -4.2013  -15.3045    6.6728 C.ar      1 <0>        -0.1743
     37 C28        -5.2897  -15.1298    5.8409 C.ar      1 <0>        -0.0729
     38 C29        -5.6145  -16.1010    4.9115 C.ar      1 <0>        -0.1732
     39 C30        -4.8510  -17.2496    4.8115 C.ar      1 <0>        -0.0770
     40 C31        -3.7579  -17.4281    5.6364 C.ar      1 <0>        -0.1948
     41 O5         -2.6060  -12.6273    4.4381 O.2       1 <0>        -0.3734
     42 H1          1.2796    1.8472    0.0112 H         1 <0>         0.1243
     43 H2         -0.2801    1.8702   -0.8460 H         1 <0>         0.1242
     44 H3         -0.2427    1.8590    0.9335 H         1 <0>         0.1220
     45 H4         -1.6375   -0.1292    0.9655 H         1 <0>         0.1306
     46 H5         -1.6958   -0.0225   -0.8097 H         1 <0>         0.1344
     47 H6         -2.2160   -2.3214   -0.0372 H         1 <0>         0.1176
     48 H7         -0.7046   -2.2901   -0.9784 H         1 <0>         0.0934
     49 H8         -0.9354   -2.2876    2.0667 H         1 <0>         0.1034
     50 H9          1.5261   -2.3767    2.0352 H         1 <0>         0.1212
     51 H10         1.5229   -2.3230    0.2553 H         1 <0>         0.0894
     52 H11         1.9569   -0.0765    1.2133 H         1 <0>         0.1327
     53 H12         0.4191   -0.1596    2.1045 H         1 <0>         0.1300
     54 H13        -1.3933   -4.4738    0.9096 H         1 <0>         0.0792
     55 H14         0.2076   -4.3602    0.1398 H         1 <0>         0.0745
     56 H15        -0.5468   -6.2730    0.3244 H         1 <0>         0.1562
     57 H16         1.4979   -8.4140    4.3085 H         1 <0>         0.1502
     58 H17         1.2179   -7.1766    5.9411 H         1 <0>         0.0598
     59 H18         2.8187   -7.0637    5.1711 H         1 <0>         0.0633
     60 H19         2.2559   -5.7638    6.2490 H         1 <0>         0.1106
     61 H20        -0.6213  -10.8319   -0.5198 H         1 <0>         0.2072
     62 H21        -1.2373  -10.1079    5.1816 H         1 <0>         0.1501
     63 H22         0.7663  -13.3153    7.2194 H         1 <0>         0.1671
     64 H23        -0.1566  -15.1265    7.3792 H         1 <0>         0.0778
     65 H24        -0.7004  -13.8904    8.5387 H         1 <0>         0.0859
     66 H25        -1.5140  -16.0821    9.2650 H         1 <0>         0.1050
     67 H26        -2.8953  -15.0987    8.7236 H         1 <0>         0.0913
     68 H27        -1.9172  -18.6168    7.9693 H         1 <0>         0.0515
     69 H28        -1.5393  -18.2119    6.2777 H         1 <0>         0.0701
     70 H29        -0.4888  -17.6251    7.5893 H         1 <0>         0.0648
     71 H30        -3.9486  -14.5460    7.3989 H         1 <0>         0.1192
     72 H31        -5.8881  -14.2339    5.9164 H         1 <0>         0.1166
     73 H32        -6.4666  -15.9622    4.2626 H         1 <0>         0.1159
     74 H33        -5.1074  -18.0061    4.0846 H         1 <0>         0.1190
     75 H34        -3.1594  -18.3233    5.5547 H         1 <0>         0.1196
     76 H35        -1.3214  -10.6730    3.4904 H         1 <0>         0.1205
     77 H36         0.6881   -0.3088   -0.8131 H         1 <0>         0.4248
@<TRIPOS>BOND
     1    1    2 1
     2    1   42 1
     3    1   43 1
     4    1   44 1
     5    2    7 1
     6    2    3 1
     7    2   77 1
     8    3    4 1
     9    3   45 1
    10    3   46 1
    11    4    5 1
    12    4   47 1
    13    4   48 1
    14    5    6 1
    15    5    8 1
    16    5   49 1
    17    6    7 1
    18    6   50 1
    19    6   51 1
    20    7   52 1
    21    7   53 1
    22    8    9 1
    23    8   54 1
    24    8   55 1
    25    9   10 1
    26   10   15 ar
    27   10   11 ar
    28   11   12 ar
    29   11   56 1
    30   12   21 ar
    31   12   13 ar
    32   13   14 ar
    33   13   18 ar
    34   14   15 ar
    35   14   57 1
    36   15   16 1
    37   16   17 1
    38   17   58 1
    39   17   59 1
    40   17   60 1
    41   18   19 ar
    42   18   22 1
    43   19   20 ar
    44   20   21 ar
    45   20   61 1
    46   22   23 2
    47   23   28 1
    48   23   24 1
    49   24   62 1
    50   24   76 1
    51   24   25 1
    52   25   41 2
    53   25   26 1
    54   26   30 1
    55   26   27 2
    56   27   28 1
    57   27   63 1
    58   28   29 2
    59   30   31 1
    60   31   32 1
    61   31   64 1
    62   31   65 1
    63   32   33 1
    64   32   66 1
    65   32   67 1
    66   33   34 1
    67   33   35 1
    68   34   68 1
    69   34   69 1
    70   34   70 1
    71   35   40 ar
    72   35   36 ar
    73   36   37 ar
    74   36   71 1
    75   37   38 ar
    76   37   72 1
    77   38   39 ar
    78   38   73 1
    79   39   40 ar
    80   39   74 1
    81   40   75 1
@<TRIPOS>MOLECULE
CHEMBL440940__1
   77    81     0     0     0
SMALL
USER_CHARGES

@<TRIPOS>ATOM
      1 C1          0.1307    1.4982    0.0777 C.3       1 <0>        -0.0473
      2 N1          0.1307    0.0293    0.0623 N.4       1 <0>        -0.3862
      3 C2         -1.2537   -0.4586    0.0684 C.3       1 <0>        -0.0036
      4 C3         -1.2608   -1.9856   -0.0294 C.3       1 <0>        -0.1428
      5 C4         -0.5059   -2.5718    1.1672 C.3       1 <0>        -0.0975
      6 C5          0.9139   -1.9985    1.1932 C.3       1 <0>        -0.1438
      7 C6          0.8404   -0.4710    1.2457 C.3       1 <0>        -0.0064
      8 C7         -0.4405   -4.0946    1.0346 C.3       1 <0>         0.0544
      9 O1          0.1605   -4.6494    2.2065 O.3       1 <0>        -0.2956
     10 C8          0.2948   -6.0004    2.2501 C.ar      1 <0>         0.1605
     11 C9         -0.1344   -6.7549    1.1951 C.ar      1 <0>        -0.1750
     12 C10         0.0039   -8.1495    1.2393 C.ar      1 <0>         0.1901
     13 C11         0.5891   -8.7560    2.3824 C.ar      1 <0>        -0.1535
     14 C12         1.0198   -7.9606    3.4479 C.ar      1 <0>        -0.1507
     15 C13         0.8780   -6.6025    3.3760 C.ar      1 <0>         0.1205
     16 O2          1.3016   -5.8274    4.4086 O.3       1 <0>        -0.2997
     17 C14         1.8867   -6.4986    5.5262 C.3       1 <0>         0.0218
     18 C15         0.7162  -10.1691    2.3979 C.ar      1 <0>         0.3733
     19 N2          0.2798  -10.8491    1.3400 N.ar      1 <0>        -0.5127
     20 C16        -0.2575  -10.2364    0.3006 C.ar      1 <0>         0.3298
     21 N3         -0.4001   -8.9327    0.2320 N.ar      1 <0>        -0.5154
     22 N4          1.2686  -10.8107    3.4634 N.2       1 <0>        -0.3948
     23 C17         0.5302  -11.1223    4.4906 C.2       1 <0>         0.1749
     24 C18         1.1209  -11.7174    5.7588 C.3       1 <0>        -0.1100
     25 C19         0.5754  -10.9124    6.9192 C.2       1 <0>         0.3985
     26 C20        -0.8379  -10.4885    6.9058 C.2       1 <0>         0.1173
     27 C21        -1.5596  -10.4775    5.7581 C.2       1 <0>        -0.3032
     28 C22        -0.9442  -10.9120    4.4980 C.2       1 <0>         0.3848
     29 O3         -1.6152  -11.0952    3.4997 O.2       1 <0>        -0.4027
     30 O4         -1.4256  -10.1035    8.0622 O.3       1 <0>        -0.2645
     31 C23        -2.7955   -9.7029    7.9918 C.3       1 <0>         0.0238
     32 C24        -3.2830   -9.3054    9.3865 C.3       1 <0>         0.1260
     33 N5         -2.5545   -8.1172    9.8381 N.pl3     1 <0>        -0.6349
     34 C25        -3.0774   -6.7810    9.5423 C.3       1 <0>         0.0928
     35 C26        -1.3616   -8.2584   10.5507 C.ar      1 <0>         0.2107
     36 C27        -0.8614   -9.5246   10.8270 C.ar      1 <0>        -0.1726
     37 C28         0.3187   -9.6606   11.5314 C.ar      1 <0>        -0.0705
     38 C29         1.0021   -8.5381   11.9619 C.ar      1 <0>        -0.1717
     39 C30         0.5070   -7.2762   11.6885 C.ar      1 <0>        -0.0783
     40 C31        -0.6696   -7.1329   10.9797 C.ar      1 <0>        -0.1968
     41 O5          1.2908  -10.6200    7.8481 O.2       1 <0>        -0.3726
     42 H1          1.1583    1.8617    0.0665 H         1 <0>         0.1244
     43 H2         -0.3961    1.8708   -0.8008 H         1 <0>         0.1242
     44 H3         -0.3700    1.8521    0.9789 H         1 <0>         0.1219
     45 H4         -1.7424   -0.1519    0.9932 H         1 <0>         0.1305
     46 H5         -1.7904   -0.0380   -0.7819 H         1 <0>         0.1344
     47 H6         -2.2895   -2.3460   -0.0228 H         1 <0>         0.1173
     48 H7         -0.7725   -2.2934   -0.9540 H         1 <0>         0.0936
     49 H8         -1.0229   -2.3070    2.0895 H         1 <0>         0.1030
     50 H9          1.4396   -2.3681    2.0736 H         1 <0>         0.1212
     51 H10         1.4473   -2.3065    0.2939 H         1 <0>         0.0895
     52 H11         1.8496   -0.0596    1.2645 H         1 <0>         0.1328
     53 H12         0.3070   -0.1640    2.1454 H         1 <0>         0.1299
     54 H13        -1.4485   -4.4931    0.9199 H         1 <0>         0.0784
     55 H14         0.1559   -4.3580    0.1611 H         1 <0>         0.0744
     56 H15        -0.5779   -6.2800    0.3324 H         1 <0>         0.1556
     57 H16         1.4653   -8.4154    4.3203 H         1 <0>         0.1446
     58 H17         1.1607   -7.1884    5.9565 H         1 <0>         0.0559
     59 H18         2.7650   -7.0540    5.1974 H         1 <0>         0.0623
     60 H19         2.1806   -5.7654    6.2773 H         1 <0>         0.1112
     61 H20        -0.5952  -10.8356   -0.5320 H         1 <0>         0.2055
     62 H21         0.8199  -12.7605    5.8556 H         1 <0>         0.1553
     63 H22        -2.5873  -10.1456    5.7705 H         1 <0>         0.1589
     64 H23        -2.8911   -8.8521    7.3173 H         1 <0>         0.0735
     65 H24        -3.3976  -10.5315    7.6190 H         1 <0>         0.0851
     66 H25        -4.3499   -9.0851    9.3494 H         1 <0>         0.1040
     67 H26        -3.1054  -10.1263   10.0812 H         1 <0>         0.0930
     68 H27        -3.7350   -6.4611   10.3506 H         1 <0>         0.0510
     69 H28        -2.2487   -6.0792    9.4487 H         1 <0>         0.0685
     70 H29        -3.6374   -6.8087    8.6076 H         1 <0>         0.0623
     71 H30        -1.3950  -10.4016   10.4917 H         1 <0>         0.1200
     72 H31         0.7081  -10.6447   11.7466 H         1 <0>         0.1189
     73 H32         1.9243   -8.6473   12.5132 H         1 <0>         0.1169
     74 H33         1.0432   -6.4016   12.0262 H         1 <0>         0.1181
     75 H34        -1.0533   -6.1470   10.7626 H         1 <0>         0.1175
     76 H35         2.2081  -11.6450    5.7325 H         1 <0>         0.1456
     77 H36         0.5965   -0.2973   -0.7711 H         1 <0>         0.4249
@<TRIPOS>BOND
     1    1    2 1
     2    1   42 1
     3    1   43 1
     4    1   44 1
     5    2    7 1
     6    2    3 1
     7    2   77 1
     8    3    4 1
     9    3   45 1
    10    3   46 1
    11    4    5 1
    12    4   47 1
    13    4   48 1
    14    5    6 1
    15    5    8 1
    16    5   49 1
    17    6    7 1
    18    6   50 1
    19    6   51 1
    20    7   52 1
    21    7   53 1
    22    8    9 1
    23    8   54 1
    24    8   55 1
    25    9   10 1
    26   10   15 ar
    27   10   11 ar
    28   11   12 ar
    29   11   56 1
    30   12   21 ar
    31   12   13 ar
    32   13   14 ar
    33   13   18 ar
    34   14   15 ar
    35   14   57 1
    36   15   16 1
    37   16   17 1
    38   17   58 1
    39   17   59 1
    40   17   60 1
    41   18   19 ar
    42   18   22 1
    43   19   20 ar
    44   20   21 ar
    45   20   61 1
    46   22   23 2
    47   23   28 1
    48   23   24 1
    49   24   62 1
    50   24   76 1
    51   24   25 1
    52   25   41 2
    53   25   26 1
    54   26   30 1
    55   26   27 2
    56   27   28 1
    57   27   63 1
    58   28   29 2
    59   30   31 1
    60   31   32 1
    61   31   64 1
    62   31   65 1
    63   32   33 1
    64   32   66 1
    65   32   67 1
    66   33   34 1
    67   33   35 1
    68   34   68 1
    69   34   69 1
    70   34   70 1
    71   35   40 ar
    72   35   36 ar
    73   36   37 ar
    74   36   71 1
    75   37   38 ar
    76   37   72 1
    77   38   39 ar
    78   38   73 1
    79   39   40 ar
    80   39   74 1
    81   40   75 1
@<TRIPOS>MOLECULE
CHEMBL376307
   41    44     0     0     0
SMALL
USER_CHARGES

@<TRIPOS>ATOM
      1 C1         -0.0711    1.4520    0.1791 C.ar      1 <0>         0.0124
      2 C2          1.1009    2.2004    0.1182 C.ar      1 <0>        -0.1477
      3 C3          2.3404    1.6078    0.2723 C.ar      1 <0>         0.0938
      4 C4          2.4025    0.1665    0.5028 C.ar      1 <0>        -0.2400
      5 C5          1.1411   -0.5876    0.5601 C.ar      1 <0>         0.2425
      6 C6         -0.0727    0.1124    0.3904 C.ar      1 <0>        -0.1618
      7 N1          1.4622   -1.8507    0.7751 N.pl3     1 <0>        -0.4227
      8 H1          3.3384   -2.7891    1.0152 H         1 <0>         0.4689
      9 N2          2.8545   -1.9627    0.8609 N.pl3     1 <0>        -0.4408
     10 C7          3.4218   -0.7547    0.6980 C.2       1 <0>         0.5285
     11 N3          4.7808   -0.4790    0.7205 N.pl3     1 <0>        -0.7876
     12 C8          3.5786    2.4165    0.2047 C.ar      1 <0>        -0.1030
     13 C9          4.5454    2.2997    1.2043 C.ar      1 <0>        -0.1085
     14 C10         5.6970    3.0538    1.1388 C.ar      1 <0>        -0.1160
     15 C11         5.8961    3.9303    0.0783 C.ar      1 <0>         0.1941
     16 C12         4.9346    4.0491   -0.9186 C.ar      1 <0>        -0.1368
     17 C13         3.7838    3.2930   -0.8617 C.ar      1 <0>        -0.0624
     18 N4          7.0652    4.6940    0.0145 N.am      1 <0>        -0.6833
     19 C14         8.2245    4.1920    0.4843 C.2       1 <0>         0.7081
     20 O1          8.2745    3.0421    0.8767 O.2       1 <0>        -0.5588
     21 N5          9.3284    4.9645    0.5190 N.am      1 <0>        -0.6658
     22 C15        10.5618    4.4125    0.9145 C.2       1 <0>         0.1083
     23 C16        11.7494    4.8826    0.3769 C.2       1 <0>        -0.1766
     24 C17        12.9182    4.3280    0.7811 C.2       1 <0>        -0.1515
     25 S1         12.3628    3.1030    1.9547 S.3       1 <0>         0.0622
     26 C18        10.6089    3.4129    1.8344 C.2       1 <0>        -0.1725
     27 H2         -1.0170    1.9589    0.0575 H         1 <0>         0.1557
     28 H3          1.0408    3.2651   -0.0531 H         1 <0>         0.1512
     29 H4         -1.0099   -0.4228    0.4294 H         1 <0>         0.1541
     30 H5          5.0935    0.4301    0.5920 H         1 <0>         0.4432
     31 H6          5.4187   -1.1954    0.8647 H         1 <0>         0.4249
     32 H7          4.3911    1.6192    2.0287 H         1 <0>         0.1311
     33 H8          6.4453    2.9641    1.9123 H         1 <0>         0.1483
     34 H9          5.0918    4.7311   -1.7412 H         1 <0>         0.1400
     35 H10         3.0395    3.3819   -1.6392 H         1 <0>         0.1404
     36 H11         7.0422    5.5852   -0.3678 H         1 <0>         0.4153
     37 H12         9.2731    5.9008    0.2716 H         1 <0>         0.4104
     38 H13        11.7437    5.6784   -0.3532 H         1 <0>         0.1400
     39 H14        13.9255    4.5659    0.4727 H         1 <0>         0.1937
     40 H15         9.7958    2.9304    2.3564 H         1 <0>         0.1957
     41 H16         0.8329   -2.5840    0.8604 H         1 <0>         0.4731
@<TRIPOS>BOND
     1    1    6 ar
     2    1    2 ar
     3    1   27 1
     4    2    3 ar
     5    2   28 1
     6    3    4 ar
     7    3   12 1
     8    4    5 ar
     9    4   10 2
    10    5    6 ar
    11    5    7 2
    12    6   29 1
    13    7    9 1
    14    7   41 1
    15    8    9 1
    16    9   10 1
    17   10   11 1
    18   11   30 1
    19   11   31 1
    20   12   17 ar
    21   12   13 ar
    22   13   14 ar
    23   13   32 1
    24   14   15 ar
    25   14   33 1
    26   15   16 ar
    27   15   18 1
    28   16   17 ar
    29   16   34 1
    30   17   35 1
    31   18   19 am
    32   18   36 1
    33   19   20 2
    34   19   21 am
    35   21   22 1
    36   21   37 1
    37   22   26 2
    38   22   23 1
    39   23   24 2
    40   23   38 1
    41   24   25 1
    42   24   39 1
    43   25   26 1
    44   26   40 1
@<TRIPOS>MOLECULE
CHEMBL376307__1
   40    43     0     0     0
SMALL
USER_CHARGES

@<TRIPOS>ATOM
      1 C1         -0.0711    1.4520    0.1791 C.ar      1 <0>        -0.0626
      2 C2          1.1009    2.2004    0.1182 C.ar      1 <0>        -0.1630
      3 C3          2.3404    1.6078    0.2723 C.ar      1 <0>         0.0468
      4 C4          2.4025    0.1665    0.5028 C.ar      1 <0>        -0.2622
      5 C5          1.1411   -0.5876    0.5601 C.ar      1 <0>         0.1404
      6 C6         -0.0727    0.1124    0.3904 C.ar      1 <0>        -0.1165
      7 N1          1.4622   -1.8507    0.7751 N.2       1 <0>        -0.3195
      8 H1          3.3384   -2.7891    1.0152 H         1 <0>         0.4389
      9 N2          2.8545   -1.9627    0.8609 N.pl3     1 <0>        -0.4671
     10 C7          3.4218   -0.7547    0.6980 C.2       1 <0>         0.4018
     11 N3          4.7808   -0.4790    0.7205 N.pl3     1 <0>        -0.8448
     12 C8          3.5786    2.4165    0.2047 C.ar      1 <0>        -0.0602
     13 C9          4.5454    2.2997    1.2043 C.ar      1 <0>        -0.1052
     14 C10         5.6970    3.0538    1.1388 C.ar      1 <0>        -0.1159
     15 C11         5.8961    3.9303    0.0783 C.ar      1 <0>         0.1659
     16 C12         4.9346    4.0491   -0.9186 C.ar      1 <0>        -0.1387
     17 C13         3.7838    3.2930   -0.8617 C.ar      1 <0>        -0.0796
     18 N4          7.0652    4.6940    0.0145 N.am      1 <0>        -0.6807
     19 C14         8.2245    4.1920    0.4843 C.2       1 <0>         0.7053
     20 O1          8.2745    3.0421    0.8767 O.2       1 <0>        -0.5557
     21 N5          9.3284    4.9645    0.5190 N.am      1 <0>        -0.6707
     22 C15        10.5618    4.4125    0.9145 C.2       1 <0>         0.1099
     23 C16        11.7494    4.8826    0.3769 C.2       1 <0>        -0.1735
     24 C17        12.9182    4.3280    0.7811 C.2       1 <0>        -0.1579
     25 S1         12.3628    3.1030    1.9547 S.3       1 <0>         0.0538
     26 C18        10.6089    3.4129    1.8344 C.2       1 <0>        -0.1680
     27 H2         -1.0170    1.9589    0.0575 H         1 <0>         0.1258
     28 H3          1.0408    3.2651   -0.0531 H         1 <0>         0.1233
     29 H4         -1.0099   -0.4228    0.4294 H         1 <0>         0.1267
     30 H5          5.0935    0.4301    0.5920 H         1 <0>         0.4212
     31 H6          5.4187   -1.1954    0.8647 H         1 <0>         0.4022
     32 H7          4.3911    1.6192    2.0287 H         1 <0>         0.1307
     33 H8          6.4453    2.9641    1.9123 H         1 <0>         0.1399
     34 H9          5.0918    4.7311   -1.7412 H         1 <0>         0.1305
     35 H10         3.0395    3.3819   -1.6392 H         1 <0>         0.1341
     36 H11         7.0422    5.5852   -0.3678 H         1 <0>         0.4100
     37 H12         9.2731    5.9008    0.2716 H         1 <0>         0.4079
     38 H13        11.7437    5.6784   -0.3532 H         1 <0>         0.1383
     39 H14        13.9255    4.5659    0.4727 H         1 <0>         0.1914
     40 H15         9.7958    2.9304    2.3564 H         1 <0>         0.1972
@<TRIPOS>BOND
     1    1    6 ar
     2    1    2 ar
     3    1   27 1
     4    2    3 ar
     5    2   28 1
     6    3    4 ar
     7    3   12 1
     8    4    5 ar
     9    4   10 2
    10    5    6 ar
    11    5    7 2
    12    6   29 1
    13    7    9 1
    14    8    9 1
    15    9   10 1
    16   10   11 1
    17   11   30 1
    18   11   31 1
    19   12   17 ar
    20   12   13 ar
    21   13   14 ar
    22   13   32 1
    23   14   15 ar
    24   14   33 1
    25   15   16 ar
    26   15   18 1
    27   16   17 ar
    28   16   34 1
    29   17   35 1
    30   18   19 am
    31   18   36 1
    32   19   20 2
    33   19   21 am
    34   21   22 1
    35   21   37 1
    36   22   26 2
    37   22   23 1
    38   23   24 2
    39   23   38 1
    40   24   25 1
    41   24   39 1
    42   25   26 1
    43   26   40 1
@<TRIPOS>MOLECULE
CHEMBL376307__2
   40    43     0     0     0
SMALL
USER_CHARGES

@<TRIPOS>ATOM
      1 C1          1.4935   -0.8693   -0.7662 C.ar      1 <0>        -0.0590
      2 C2          2.5834   -0.0123   -0.7373 C.ar      1 <0>        -0.1553
      3 C3          2.8011    0.8074    0.3607 C.ar      1 <0>         0.0378
      4 C4          1.9053    0.7618    1.4466 C.ar      1 <0>        -0.1852
      5 C5          0.8039   -0.1115    1.4053 C.ar      1 <0>         0.1539
      6 C6          0.6106   -0.9232    0.2890 C.ar      1 <0>        -0.1525
      7 N1          0.1191    0.0581    2.5809 N.pl3     1 <0>        -0.5092
      8 H1         -0.6892   -0.4147    2.8338 H         1 <0>         0.4412
      9 N2          0.7713    1.0213    3.3573 N.2       1 <0>        -0.3209
     10 C7          1.8284    1.4621    2.7271 C.2       1 <0>         0.3652
     11 N3          2.7238    2.4286    3.1940 N.pl3     1 <0>        -0.8356
     12 C8          3.9658    1.7222    0.3909 C.ar      1 <0>        -0.0687
     13 C9          4.8980    1.6327    1.4249 C.ar      1 <0>        -0.0900
     14 C10         5.9808    2.4852    1.4505 C.ar      1 <0>        -0.1165
     15 C11         6.1443    3.4334    0.4474 C.ar      1 <0>         0.1653
     16 C12         5.2168    3.5250   -0.5837 C.ar      1 <0>        -0.1408
     17 C13         4.1355    2.6709   -0.6176 C.ar      1 <0>        -0.0797
     18 N4          7.2437    4.2968    0.4760 N.am      1 <0>        -0.6811
     19 C14         8.4339    3.8576    0.9307 C.2       1 <0>         0.7051
     20 O1          8.5325    2.7369    1.3923 O.2       1 <0>        -0.5531
     21 N5          9.5150    4.6605    0.8739 N.am      1 <0>        -0.6690
     22 C15        10.7772    4.1700    1.2594 C.2       1 <0>         0.1098
     23 C16        11.9367    4.7122    0.7280 C.2       1 <0>        -0.1745
     24 C17        13.1345    4.2152    1.1219 C.2       1 <0>        -0.1576
     25 S1         12.6485    2.9433    2.2763 S.3       1 <0>         0.0501
     26 C18        10.8802    3.1602    2.1634 C.2       1 <0>        -0.1716
     27 H2          1.3328   -1.4990   -1.6288 H         1 <0>         0.1327
     28 H3          3.2662    0.0170   -1.5735 H         1 <0>         0.1292
     29 H4         -0.2337   -1.5956    0.2514 H         1 <0>         0.1280
     30 H5          3.4212    2.7659    2.6103 H         1 <0>         0.4114
     31 H6          2.6479    2.7619    4.1018 H         1 <0>         0.4054
     32 H7          4.7712    0.8963    2.2047 H         1 <0>         0.1301
     33 H8          6.7026    2.4165    2.2509 H         1 <0>         0.1450
     34 H9          5.3461    4.2629   -1.3616 H         1 <0>         0.1298
     35 H10         3.4176    2.7394   -1.4216 H         1 <0>         0.1320
     36 H11         7.1497    5.2120    0.1684 H         1 <0>         0.4096
     37 H12         9.4234    5.5763    0.5675 H         1 <0>         0.4075
     38 H13        11.8865    5.5181    0.0108 H         1 <0>         0.1379
     39 H14        14.1269    4.5117    0.8158 H         1 <0>         0.1910
     40 H15        10.0954    2.6264    2.6789 H         1 <0>         0.2023
@<TRIPOS>BOND
     1    1    6 ar
     2    1    2 ar
     3    1   27 1
     4    2    3 ar
     5    2   28 1
     6    3    4 ar
     7    3   12 1
     8    4   10 1
     9    4    5 ar
    10    5    6 ar
    11    5    7 1
    12    6   29 1
    13    7    8 1
    14    7    9 1
    15    9   10 2
    16   10   11 1
    17   11   30 1
    18   11   31 1
    19   12   17 ar
    20   12   13 ar
    21   13   14 ar
    22   13   32 1
    23   14   15 ar
    24   14   33 1
    25   15   16 ar
    26   15   18 1
    27   16   17 ar
    28   16   34 1
    29   17   35 1
    30   18   19 am
    31   18   36 1
    32   19   20 2
    33   19   21 am
    34   21   22 1
    35   21   37 1
    36   22   26 2
    37   22   23 1
    38   23   24 2
    39   23   38 1
    40   24   25 1
    41   24   39 1
    42   25   26 1
    43   26   40 1
@<TRIPOS>MOLECULE
CHEMBL220057
   47    50     0     0     0
SMALL
USER_CHARGES

@<TRIPOS>ATOM
      1 C1         -1.1926    1.0263   -0.4140 C.3       1 <0>        -0.1177
      2 C2         -1.7178   -0.2501    0.1910 C.ar      1 <0>        -0.0635
      3 C3         -2.9578   -0.7337   -0.1851 C.ar      1 <0>        -0.1304
      4 C4         -3.4429   -1.9046    0.3673 C.ar      1 <0>        -0.0948
      5 C5         -2.6901   -2.5952    1.2971 C.ar      1 <0>        -0.1251
      6 C6         -1.4449   -2.1123    1.6767 C.ar      1 <0>         0.1564
      7 C7         -0.9581   -0.9386    1.1160 C.ar      1 <0>        -0.1444
      8 N1         -0.6800   -2.8093    2.6187 N.am      1 <0>        -0.6759
      9 C8         -0.7441   -4.1543    2.6766 C.2       1 <0>         0.7045
     10 O1         -1.3923   -4.7682    1.8512 O.2       1 <0>        -0.5474
     11 N2         -0.0895   -4.8189    3.6494 N.am      1 <0>        -0.6850
     12 C9         -0.0661   -6.2167    3.6472 C.ar      1 <0>         0.1943
     13 C10        -0.0546   -6.9083    2.4415 C.ar      1 <0>        -0.1112
     14 C11        -0.0311   -8.2863    2.4361 C.ar      1 <0>        -0.0624
     15 C12        -0.0188   -8.9872    3.6428 C.ar      1 <0>        -0.1031
     16 C13        -0.0304   -8.2901    4.8517 C.ar      1 <0>        -0.1073
     17 C14        -0.0486   -6.9121    4.8507 C.ar      1 <0>        -0.1433
     18 C15         0.0060  -10.4675    3.6404 C.ar      1 <0>         0.0934
     19 C16        -0.8893  -11.1872    2.8712 C.ar      1 <0>        -0.1465
     20 C17        -0.8770  -12.5790    2.8596 C.ar      1 <0>         0.0139
     21 C18         0.0013  -13.3083    3.5916 C.ar      1 <0>        -0.1622
     22 C19         0.9569  -12.6685    4.4100 C.ar      1 <0>         0.2422
     23 C20         0.9811  -11.1984    4.4463 C.ar      1 <0>        -0.2390
     24 C21         2.0059  -10.8422    5.3114 C.2       1 <0>         0.5280
     25 N3          2.5692  -11.9755    5.7654 N.pl3     1 <0>        -0.4402
     26 N4          1.9169  -13.0851    5.2159 N.pl3     1 <0>        -0.4223
     27 H1          3.3124  -12.0178    6.3873 H         1 <0>         0.4687
     28 N5          2.3818   -9.5501    5.6468 N.pl3     1 <0>        -0.7907
     29 H2         -0.6304    0.7951   -1.3187 H         1 <0>         0.0738
     30 H3         -2.0278    1.6811   -0.6626 H         1 <0>         0.0710
     31 H4         -0.5398    1.5259    0.3017 H         1 <0>         0.0676
     32 H5         -3.5484   -0.1954   -0.9115 H         1 <0>         0.1263
     33 H6         -4.4117   -2.2796    0.0718 H         1 <0>         0.1282
     34 H7         -3.0698   -3.5096    1.7285 H         1 <0>         0.1341
     35 H8          0.0119   -0.5626    1.4062 H         1 <0>         0.1256
     36 H9         -0.1036   -2.3245    3.2299 H         1 <0>         0.4101
     37 H10         0.3653   -4.3273    4.3511 H         1 <0>         0.4133
     38 H11        -0.0645   -6.3653    1.5079 H         1 <0>         0.1493
     39 H12        -0.0225   -8.8231    1.4990 H         1 <0>         0.1392
     40 H13        -0.0209   -8.8299    5.7871 H         1 <0>         0.1322
     41 H14        -0.0530   -6.3720    5.7860 H         1 <0>         0.1388
     42 H15        -1.6126  -10.6591    2.2676 H         1 <0>         0.1520
     43 H16        -1.5958  -13.0988    2.2434 H         1 <0>         0.1562
     44 H17        -0.0308  -14.3869    3.5483 H         1 <0>         0.1543
     45 H18         1.9112   -8.7932    5.2639 H         1 <0>         0.4418
     46 H19         3.1154   -9.4032    6.2643 H         1 <0>         0.4241
     47 H20         2.1404  -14.0125    5.3915 H         1 <0>         0.4732
@<TRIPOS>BOND
     1    1    2 1
     2    1   29 1
     3    1   30 1
     4    1   31 1
     5    2    7 ar
     6    2    3 ar
     7    3    4 ar
     8    3   32 1
     9    4    5 ar
    10    4   33 1
    11    5    6 ar
    12    5   34 1
    13    6    7 ar
    14    6    8 1
    15    7   35 1
    16    8    9 am
    17    8   36 1
    18    9   10 2
    19    9   11 am
    20   11   12 1
    21   11   37 1
    22   12   17 ar
    23   12   13 ar
    24   13   14 ar
    25   13   38 1
    26   14   15 ar
    27   14   39 1
    28   15   16 ar
    29   15   18 1
    30   16   17 ar
    31   16   40 1
    32   17   41 1
    33   18   23 ar
    34   18   19 ar
    35   19   20 ar
    36   19   42 1
    37   20   21 ar
    38   20   43 1
    39   21   22 ar
    40   21   44 1
    41   22   23 ar
    42   22   26 2
    43   23   24 2
    44   24   28 1
    45   24   25 1
    46   25   27 1
    47   25   26 1
    48   26   47 1
    49   28   45 1
    50   28   46 1
@<TRIPOS>MOLECULE
CHEMBL220057__1
   46    49     0     0     0
SMALL
USER_CHARGES

@<TRIPOS>ATOM
      1 C1         -1.1926    1.0263   -0.4140 C.3       1 <0>        -0.1155
      2 C2         -1.7178   -0.2501    0.1910 C.ar      1 <0>        -0.0662
      3 C3         -2.9578   -0.7337   -0.1851 C.ar      1 <0>        -0.1348
      4 C4         -3.4429   -1.9046    0.3673 C.ar      1 <0>        -0.0949
      5 C5         -2.6901   -2.5952    1.2971 C.ar      1 <0>        -0.1253
      6 C6         -1.4449   -2.1123    1.6767 C.ar      1 <0>         0.1638
      7 C7         -0.9581   -0.9386    1.1160 C.ar      1 <0>        -0.1473
      8 N1         -0.6800   -2.8093    2.6187 N.am      1 <0>        -0.6810
      9 C8         -0.7441   -4.1543    2.6766 C.2       1 <0>         0.7035
     10 O1         -1.3923   -4.7682    1.8512 O.2       1 <0>        -0.5491
     11 N2         -0.0895   -4.8189    3.6494 N.am      1 <0>        -0.6818
     12 C9         -0.0661   -6.2167    3.6472 C.ar      1 <0>         0.1659
     13 C10        -0.0546   -6.9083    2.4415 C.ar      1 <0>        -0.1125
     14 C11        -0.0311   -8.2863    2.4361 C.ar      1 <0>        -0.0792
     15 C12        -0.0188   -8.9872    3.6428 C.ar      1 <0>        -0.0598
     16 C13        -0.0304   -8.2901    4.8517 C.ar      1 <0>        -0.1049
     17 C14        -0.0486   -6.9121    4.8507 C.ar      1 <0>        -0.1430
     18 C15         0.0060  -10.4675    3.6404 C.ar      1 <0>         0.0451
     19 C16        -0.8893  -11.1872    2.8712 C.ar      1 <0>        -0.1607
     20 C17        -0.8770  -12.5790    2.8596 C.ar      1 <0>        -0.0616
     21 C18         0.0013  -13.3083    3.5916 C.ar      1 <0>        -0.1168
     22 C19         0.9569  -12.6685    4.4100 C.ar      1 <0>         0.1402
     23 C20         0.9811  -11.1984    4.4463 C.ar      1 <0>        -0.2596
     24 C21         2.0059  -10.8422    5.3114 C.2       1 <0>         0.3990
     25 N3          2.5692  -11.9755    5.7654 N.pl3     1 <0>        -0.4666
     26 N4          1.9169  -13.0851    5.2159 N.2       1 <0>        -0.3187
     27 H1          3.3124  -12.0178    6.3873 H         1 <0>         0.4386
     28 N5          2.3818   -9.5501    5.6468 N.pl3     1 <0>        -0.8467
     29 H2         -0.6304    0.7951   -1.3187 H         1 <0>         0.0723
     30 H3         -2.0278    1.6811   -0.6626 H         1 <0>         0.0690
     31 H4         -0.5398    1.5259    0.3017 H         1 <0>         0.0664
     32 H5         -3.5484   -0.1954   -0.9115 H         1 <0>         0.1239
     33 H6         -4.4117   -2.2796    0.0718 H         1 <0>         0.1269
     34 H7         -3.0698   -3.5096    1.7285 H         1 <0>         0.1356
     35 H8          0.0119   -0.5626    1.4062 H         1 <0>         0.1246
     36 H9         -0.1036   -2.3245    3.2299 H         1 <0>         0.4085
     37 H10         0.3653   -4.3273    4.3511 H         1 <0>         0.4091
     38 H11        -0.0645   -6.3653    1.5079 H         1 <0>         0.1403
     39 H12        -0.0225   -8.8231    1.4990 H         1 <0>         0.1329
     40 H13        -0.0209   -8.8299    5.7871 H         1 <0>         0.1318
     41 H14        -0.0530   -6.3720    5.7860 H         1 <0>         0.1301
     42 H15        -1.6126  -10.6591    2.2676 H         1 <0>         0.1242
     43 H16        -1.5958  -13.0988    2.2434 H         1 <0>         0.1264
     44 H17        -0.0308  -14.3869    3.5483 H         1 <0>         0.1270
     45 H18         1.9112   -8.7932    5.2639 H         1 <0>         0.4197
     46 H19         3.1154   -9.4032    6.2643 H         1 <0>         0.4015
@<TRIPOS>BOND
     1    1    2 1
     2    1   29 1
     3    1   30 1
     4    1   31 1
     5    2    7 ar
     6    2    3 ar
     7    3    4 ar
     8    3   32 1
     9    4    5 ar
    10    4   33 1
    11    5    6 ar
    12    5   34 1
    13    6    7 ar
    14    6    8 1
    15    7   35 1
    16    8    9 am
    17    8   36 1
    18    9   10 2
    19    9   11 am
    20   11   12 1
    21   11   37 1
    22   12   17 ar
    23   12   13 ar
    24   13   14 ar
    25   13   38 1
    26   14   15 ar
    27   14   39 1
    28   15   16 ar
    29   15   18 1
    30   16   17 ar
    31   16   40 1
    32   17   41 1
    33   18   23 ar
    34   18   19 ar
    35   19   20 ar
    36   19   42 1
    37   20   21 ar
    38   20   43 1
    39   21   22 ar
    40   21   44 1
    41   22   23 ar
    42   22   26 2
    43   23   24 2
    44   24   28 1
    45   24   25 1
    46   25   27 1
    47   25   26 1
    48   28   45 1
    49   28   46 1
@<TRIPOS>MOLECULE
CHEMBL220057__2
   46    49     0     0     0
SMALL
USER_CHARGES

@<TRIPOS>ATOM
      1 C1         -0.4793    1.1178   -0.1224 C.3       1 <0>        -0.1155
      2 C2         -1.0909   -0.1608    0.3897 C.ar      1 <0>        -0.0662
      3 C3         -2.2839   -0.6168   -0.1408 C.ar      1 <0>        -0.1348
      4 C4         -2.8481   -1.7896    0.3260 C.ar      1 <0>        -0.0952
      5 C5         -2.2212   -2.5097    1.3243 C.ar      1 <0>        -0.1250
      6 C6         -1.0233   -2.0546    1.8590 C.ar      1 <0>         0.1640
      7 C7         -0.4566   -0.8788    1.3842 C.ar      1 <0>        -0.1470
      8 N1         -0.3860   -2.7815    2.8707 N.am      1 <0>        -0.6811
      9 C8         -0.4696   -4.1266    2.8890 C.2       1 <0>         0.7035
     10 O1         -1.0196   -4.7140    1.9775 O.2       1 <0>        -0.5499
     11 N2          0.0565   -4.8205    3.9177 N.am      1 <0>        -0.6817
     12 C9          0.0642   -6.2184    3.8867 C.ar      1 <0>         0.1688
     13 C10         0.2155   -6.8846    2.6762 C.ar      1 <0>        -0.1157
     14 C11         0.2234   -8.2625    2.6428 C.ar      1 <0>        -0.0776
     15 C12         0.0800   -8.9885    3.8253 C.ar      1 <0>        -0.0699
     16 C13        -0.0712   -8.3172    5.0389 C.ar      1 <0>        -0.0887
     17 C14        -0.0736   -6.9392    5.0671 C.ar      1 <0>        -0.1447
     18 C15         0.0877  -10.4694    3.7925 C.ar      1 <0>         0.0383
     19 C16         1.1644  -11.1517    3.2438 C.ar      1 <0>        -0.1555
     20 C17         1.1722  -12.5377    3.2121 C.ar      1 <0>        -0.0590
     21 C18         0.1169  -13.2608    3.7221 C.ar      1 <0>        -0.1528
     22 C19        -0.9775  -12.6029    4.2796 C.ar      1 <0>         0.1539
     23 C20        -0.9947  -11.1971    4.3228 C.ar      1 <0>        -0.1851
     24 C21        -2.2531  -10.8199    4.9634 C.2       1 <0>         0.3652
     25 N3         -2.8913  -11.9207    5.2629 N.2       1 <0>        -0.3207
     26 N4         -2.1473  -13.0315    4.8519 N.pl3     1 <0>        -0.5093
     27 H1         -2.4120  -13.9579    4.9639 H         1 <0>         0.4411
     28 N5         -2.6944   -9.5170    5.2115 N.pl3     1 <0>        -0.8360
     29 H2          0.1833    0.8941   -0.9585 H         1 <0>         0.0723
     30 H3         -1.2695    1.7908   -0.4550 H         1 <0>         0.0689
     31 H4          0.0907    1.5931    0.6759 H         1 <0>         0.0666
     32 H5         -2.7762   -0.0554   -0.9211 H         1 <0>         0.1238
     33 H6         -3.7800   -2.1429   -0.0900 H         1 <0>         0.1266
     34 H7         -2.6625   -3.4256    1.6888 H         1 <0>         0.1351
     35 H8          0.4772   -0.5244    1.7952 H         1 <0>         0.1248
     36 H9          0.1159   -2.3174    3.5588 H         1 <0>         0.4087
     37 H10         0.4297   -4.3502    4.6795 H         1 <0>         0.4097
     38 H11         0.3265   -6.3220    1.7610 H         1 <0>         0.1399
     39 H12         0.3403   -8.7796    1.7019 H         1 <0>         0.1311
     40 H13        -0.1828   -8.8768    5.9559 H         1 <0>         0.1315
     41 H14        -0.1865   -6.4190    6.0068 H         1 <0>         0.1306
     42 H15         2.0002  -10.6003    2.8391 H         1 <0>         0.1293
     43 H16         2.0161  -13.0566    2.7820 H         1 <0>         0.1327
     44 H17         0.1374  -14.3401    3.6894 H         1 <0>         0.1279
     45 H18        -2.2121   -8.7623    4.8390 H         1 <0>         0.4121
     46 H19        -3.4831   -9.3675    5.7561 H         1 <0>         0.4051
@<TRIPOS>BOND
     1    1    2 1
     2    1   29 1
     3    1   30 1
     4    1   31 1
     5    2    7 ar
     6    2    3 ar
     7    3    4 ar
     8    3   32 1
     9    4    5 ar
    10    4   33 1
    11    5    6 ar
    12    5   34 1
    13    6    7 ar
    14    6    8 1
    15    7   35 1
    16    8    9 am
    17    8   36 1
    18    9   10 2
    19    9   11 am
    20   11   12 1
    21   11   37 1
    22   12   17 ar
    23   12   13 ar
    24   13   14 ar
    25   13   38 1
    26   14   15 ar
    27   14   39 1
    28   15   16 ar
    29   15   18 1
    30   16   17 ar
    31   16   40 1
    32   17   41 1
    33   18   23 ar
    34   18   19 ar
    35   19   20 ar
    36   19   42 1
    37   20   21 ar
    38   20   43 1
    39   21   22 ar
    40   21   44 1
    41   22   26 1
    42   22   23 ar
    43   23   24 1
    44   24   25 2
    45   24   28 1
    46   25   26 1
    47   26   27 1
    48   28   45 1
    49   28   46 1
@<TRIPOS>MOLECULE
CHEMBL385178
   50    53     0     0     0
SMALL
USER_CHARGES

@<TRIPOS>ATOM
      1 C1          4.4231    1.3502    3.3504 C.ar      1 <0>        -0.1526
      2 C2          4.3835   -0.0318    3.3280 C.ar      1 <0>        -0.0823
      3 C3          4.1122   -0.6972    2.1483 C.ar      1 <0>        -0.1958
      4 C4          3.8789    0.0225    0.9851 C.ar      1 <0>         0.1202
      5 C5          3.9187    1.4093    1.0104 C.ar      1 <0>        -0.1459
      6 C6          4.1910    2.0698    2.1927 C.ar      1 <0>        -0.0826
      7 O1          3.6122   -0.6296   -0.1768 O.3       1 <0>        -0.2573
      8 C7          3.6817   -1.9874   -0.1771 C.ar      1 <0>         0.0717
      9 C8          2.6638   -2.7340    0.3987 C.ar      1 <0>        -0.1135
     10 C9          2.7340   -4.1129    0.3991 C.ar      1 <0>        -0.1283
     11 C10         3.8235   -4.7526   -0.1774 C.ar      1 <0>         0.1455
     12 C11         4.8417   -4.0048   -0.7540 C.ar      1 <0>        -0.1031
     13 C12         4.7678   -2.6260   -0.7583 C.ar      1 <0>        -0.1007
     14 N1          3.8955   -6.1510   -0.1769 N.am      1 <0>        -0.6664
     15 C13         5.0882   -6.7643   -0.0442 C.2       1 <0>         0.5801
     16 O2          6.1097   -6.1054   -0.0040 O.2       1 <0>        -0.5284
     17 C14         5.1548   -8.2337    0.0521 C.ar      1 <0>        -0.2747
     18 C15         4.0031   -9.0118   -0.1146 C.ar      1 <0>         0.0071
     19 C16         4.1188  -10.3867   -0.0151 C.ar      1 <0>        -0.2456
     20 C17         5.3561  -10.9496    0.2436 C.ar      1 <0>         0.1911
     21 N2          6.4295  -10.1996    0.3976 N.ar      1 <0>        -0.5467
     22 C18         6.3766   -8.8795    0.3072 C.ar      1 <0>         0.4598
     23 N3          7.5286   -8.1322    0.4698 N.pl3     1 <0>        -0.6958
     24 C19         8.8231   -8.8034    0.6112 C.3       1 <0>         0.1648
     25 C20         9.9091   -7.7711    0.7734 C.ar      1 <0>        -0.0645
     26 C21        10.5624   -7.2485   -0.3323 C.ar      1 <0>        -0.1521
     27 C22        11.5532   -6.3035   -0.1447 C.ar      1 <0>         0.0993
     28 N4         11.8790   -5.8993    1.0675 N.ar      1 <0>        -0.4790
     29 C23        11.2791   -6.3744    2.1415 C.ar      1 <0>         0.0989
     30 C24        10.2747   -7.3173    2.0314 C.ar      1 <0>        -0.1539
     31 H1          4.6313    1.8686    4.2746 H         1 <0>         0.1255
     32 H2          4.5652   -0.5914    4.2336 H         1 <0>         0.1254
     33 H3          4.0821   -1.7766    2.1312 H         1 <0>         0.1285
     34 H4          3.7378    1.9718    0.1063 H         1 <0>         0.1326
     35 H5          4.2225    3.1491    2.2128 H         1 <0>         0.1317
     36 H6          1.8165   -2.2364    0.8470 H         1 <0>         0.1364
     37 H7          1.9419   -4.6939    0.8480 H         1 <0>         0.1350
     38 H8          5.6893   -4.5016   -1.2025 H         1 <0>         0.1483
     39 H9          5.5575   -2.0444   -1.2106 H         1 <0>         0.1368
     40 H10         3.0869   -6.6783   -0.2720 H         1 <0>         0.4129
     41 H11         3.0477   -8.5500   -0.3155 H         1 <0>         0.1352
     42 H12         3.2498  -11.0160   -0.1381 H         1 <0>         0.1411
     43 H13         5.4442  -12.0232    0.3212 H         1 <0>         0.1641
     44 H14         7.4797   -7.1637    0.4902 H         1 <0>         0.4265
     45 H15         8.8030   -9.4505    1.4881 H         1 <0>         0.0817
     46 H16         9.0210   -9.4022   -0.2778 H         1 <0>         0.0796
     47 H17        10.3005   -7.5761   -1.3276 H         1 <0>         0.1364
     48 H18        12.0669   -5.8915   -1.0007 H         1 <0>         0.1586
     49 H19        11.5733   -6.0195    3.1182 H         1 <0>         0.1584
     50 H20         9.7837   -7.6989    2.9144 H         1 <0>         0.1362
@<TRIPOS>BOND
     1    1    6 ar
     2    1    2 ar
     3    1   31 1
     4    2    3 ar
     5    2   32 1
     6    3    4 ar
     7    3   33 1
     8    4    5 ar
     9    4    7 1
    10    5    6 ar
    11    5   34 1
    12    6   35 1
    13    7    8 1
    14    8   13 ar
    15    8    9 ar
    16    9   10 ar
    17    9   36 1
    18   10   11 ar
    19   10   37 1
    20   11   12 ar
    21   11   14 1
    22   12   13 ar
    23   12   38 1
    24   13   39 1
    25   14   15 am
    26   14   40 1
    27   15   16 2
    28   15   17 1
    29   17   22 ar
    30   17   18 ar
    31   18   19 ar
    32   18   41 1
    33   19   20 ar
    34   19   42 1
    35   20   21 ar
    36   20   43 1
    37   21   22 ar
    38   22   23 1
    39   23   24 1
    40   23   44 1
    41   24   25 1
    42   24   45 1
    43   24   46 1
    44   25   30 ar
    45   25   26 ar
    46   26   27 ar
    47   26   47 1
    48   27   28 ar
    49   27   48 1
    50   28   29 ar
    51   29   30 ar
    52   29   49 1
    53   30   50 1
@<TRIPOS>MOLECULE
CHEMBL205142
   61    65     0     0     0
SMALL
USER_CHARGES

@<TRIPOS>ATOM
      1 C1          2.3742    0.3628    2.1722 C.3       1 <0>        -0.0985
      2 C2          1.6796   -0.8000    1.5117 C.2       1 <0>         0.0920
      3 C3          2.2981   -1.8653    0.9789 C.2       1 <0>        -0.1895
      4 C4          1.2544   -2.7468    0.4494 C.ar      1 <0>        -0.1344
      5 C5          0.0310   -2.1083    0.7202 C.ar      1 <0>         0.1356
      6 N1          0.3242   -0.9291    1.3716 N.pl3     1 <0>        -0.5849
      7 H1         -0.3321   -0.2860    1.6825 H         1 <0>         0.4222
      8 C6         -1.1592   -2.7133    0.3303 C.ar      1 <0>        -0.1202
      9 C7         -1.1350   -3.9295   -0.3159 C.ar      1 <0>        -0.0634
     10 C8          0.0734   -4.5651   -0.5861 C.ar      1 <0>         0.0134
     11 C9          1.2681   -3.9803   -0.2072 C.ar      1 <0>         0.1632
     12 F1          2.4407   -4.5976   -0.4701 F         1 <0>        -0.1258
     13 O1          0.0794   -5.7660   -1.2251 O.3       1 <0>        -0.2094
     14 C10         0.2039   -6.8849   -0.4739 C.2       1 <0>         0.4665
     15 C11         0.3364   -8.1476   -1.0907 C.2       1 <0>        -0.0608
     16 C12         0.3743   -8.5699   -2.4066 C.2       1 <0>        -0.0758
     17 C13         0.5237   -9.9598   -2.3850 C.2       1 <0>         0.0497
     18 C14         0.5735  -10.3552   -1.0817 C.2       1 <0>        -0.0084
     19 N2          0.4610   -9.2653   -0.2870 N.pl3     1 <0>        -0.2269
     20 N3          0.4504   -9.0890    1.1038 N.2       1 <0>        -0.3319
     21 C15         0.3251   -7.8922    1.6085 C.2       1 <0>         0.3329
     22 N4          0.2082   -6.8072    0.8448 N.2       1 <0>        -0.5942
     23 O2          0.6046  -10.7741   -3.4731 O.3       1 <0>        -0.2870
     24 C16         0.7563  -12.1734   -3.2264 C.3       1 <0>         0.0619
     25 C17         0.8286  -12.9214   -4.5591 C.3       1 <0>        -0.1498
     26 C18         0.9911  -14.4196   -4.2950 C.3       1 <0>        -0.0063
     27 N5          1.0604  -15.1378   -5.5746 N.4       1 <0>        -0.3814
     28 C19        -0.2171  -14.9962   -6.2833 C.3       1 <0>        -0.0138
     29 C20        -0.1232  -15.6737   -7.6521 C.3       1 <0>        -0.1459
     30 C21         0.1936  -17.1595   -7.4595 C.3       1 <0>        -0.1399
     31 C22         1.4894  -17.2950   -6.6548 C.3       1 <0>        -0.1465
     32 C23         1.3358  -16.5574   -5.3229 C.3       1 <0>        -0.0065
     33 C24         0.2733   -7.6979   -3.6315 C.3       1 <0>        -0.0842
     34 H2          2.4940    0.1578    3.2361 H         1 <0>         0.0832
     35 H3          3.3542    0.5067    1.7173 H         1 <0>         0.0899
     36 H4          1.7768    1.2650    2.0411 H         1 <0>         0.0734
     37 H5          3.3635   -2.0396    0.9465 H         1 <0>         0.1533
     38 H6         -2.1029   -2.2294    0.5346 H         1 <0>         0.1396
     39 H7         -2.0625   -4.3946   -0.6155 H         1 <0>         0.1448
     40 H8          0.6845  -11.3732   -0.7386 H         1 <0>         0.1804
     41 H9          0.3188   -7.7772    2.6824 H         1 <0>         0.2278
     42 H10         1.6733  -12.3456   -2.6629 H         1 <0>         0.0712
     43 H11        -0.0964  -12.5357   -2.6522 H         1 <0>         0.0708
     44 H12        -0.0884  -12.7491   -5.1226 H         1 <0>         0.0996
     45 H13         1.6813  -12.5591   -5.1333 H         1 <0>         0.1000
     46 H14         1.9081  -14.5918   -3.7315 H         1 <0>         0.1351
     47 H15         0.1383  -14.7819   -3.7208 H         1 <0>         0.1333
     48 H16        -1.0096  -15.4650   -5.7000 H         1 <0>         0.1292
     49 H17        -0.4428  -13.9382   -6.4168 H         1 <0>         0.1329
     50 H18        -1.0733  -15.5690   -8.1760 H         1 <0>         0.1124
     51 H19         0.6689  -15.2054   -8.2364 H         1 <0>         0.0880
     52 H20        -0.6227  -17.6392   -6.9194 H         1 <0>         0.0817
     53 H21         0.3174  -17.6350   -8.4325 H         1 <0>         0.0943
     54 H22         1.6920  -18.3492   -6.4657 H         1 <0>         0.1125
     55 H23         2.3150  -16.8604   -7.2184 H         1 <0>         0.0880
     56 H24         2.2566  -16.6520   -4.7473 H         1 <0>         0.1307
     57 H25         0.5102  -16.9929   -4.7600 H         1 <0>         0.1288
     58 H26         1.2706   -7.3775   -3.9328 H         1 <0>         0.0746
     59 H27        -0.1874   -8.2622   -4.4423 H         1 <0>         0.0734
     60 H28        -0.3365   -6.8231   -3.4055 H         1 <0>         0.0755
     61 H29         1.8006  -14.7475   -6.1384 H         1 <0>         0.4237
@<TRIPOS>BOND
     1    1    2 1
     2    1   34 1
     3    1   35 1
     4    1   36 1
     5    2    6 1
     6    2    3 2
     7    3    4 1
     8    3   37 1
     9    4   11 ar
    10    4    5 ar
    11    5    6 1
    12    5    8 ar
    13    6    7 1
    14    8    9 ar
    15    8   38 1
    16    9   10 ar
    17    9   39 1
    18   10   11 ar
    19   10   13 1
    20   11   12 1
    21   13   14 1
    22   14   22 2
    23   14   15 1
    24   15   19 1
    25   15   16 2
    26   16   17 1
    27   16   33 1
    28   17   18 2
    29   17   23 1
    30   18   19 1
    31   18   40 1
    32   19   20 1
    33   20   21 2
    34   21   22 1
    35   21   41 1
    36   23   24 1
    37   24   25 1
    38   24   42 1
    39   24   43 1
    40   25   26 1
    41   25   44 1
    42   25   45 1
    43   26   27 1
    44   26   46 1
    45   26   47 1
    46   27   32 1
    47   27   28 1
    48   27   61 1
    49   28   29 1
    50   28   48 1
    51   28   49 1
    52   29   30 1
    53   29   50 1
    54   29   51 1
    55   30   31 1
    56   30   52 1
    57   30   53 1
    58   31   32 1
    59   31   54 1
    60   31   55 1
    61   32   56 1
    62   32   57 1
    63   33   58 1
    64   33   59 1
    65   33   60 1
@<TRIPOS>MOLECULE
CHEMBL94678
   56    63     0     0     0
SMALL
USER_CHARGES

@<TRIPOS>ATOM
      1 C1         -0.0187    1.5258    0.0104 C.3       1 <0>        -0.1407
      2 C2          0.0021   -0.0041    0.0020 C.3       1 <0>         0.3579
      3 C3          0.6608   -0.5271   -1.2917 C.3       1 <0>         0.1132
      4 C4          1.6076   -1.6561   -0.8349 C.3       1 <0>        -0.1898
      5 C5          1.4457   -1.7229    0.6980 C.3       1 <0>         0.3130
      6 H1          2.4193   -1.8096    1.1803 H         1 <0>         0.1532
      7 O1          0.8138   -0.4973    1.0676 O.3       1 <0>        -0.3330
      8 N1          0.6026   -2.8728    1.0385 N.pl3     1 <0>        -0.5167
      9 C6          1.0184   -4.1199    1.4309 C.ar      1 <0>         0.1519
     10 C7          2.2990   -4.6615    1.5345 C.ar      1 <0>        -0.1541
     11 C8          2.3988   -5.9678    1.9816 C.ar      1 <0>        -0.0734
     12 C9          1.2861   -6.7205    2.3154 C.ar      1 <0>        -0.1593
     13 C10         0.0034   -6.2102    2.2168 C.ar      1 <0>        -0.0353
     14 C11        -0.1195   -4.8946    1.7654 C.ar      1 <0>        -0.1066
     15 C12        -1.2883   -4.0550    1.5216 C.ar      1 <0>         0.0006
     16 C13        -0.7856   -2.8411    1.0562 C.ar      1 <0>         0.1042
     17 C14        -1.6574   -1.8321    0.6310 C.ar      1 <0>         0.1849
     18 N2         -1.3604   -0.5342    0.1091 N.pl3     1 <0>        -0.5069
     19 C15        -2.5268    0.1096   -0.2279 C.ar      1 <0>         0.1905
     20 C16        -2.7381    1.3431   -0.8422 C.ar      1 <0>        -0.1655
     21 C17        -4.0518    1.7366   -1.0343 C.ar      1 <0>        -0.0792
     22 C18        -5.1215    0.9522   -0.6409 C.ar      1 <0>        -0.1580
     23 C19        -4.9386   -0.2798   -0.0351 C.ar      1 <0>        -0.0532
     24 C20        -3.6224   -0.6962    0.1618 C.ar      1 <0>        -0.0932
     25 C21        -3.0439   -2.0199    0.7036 C.ar      1 <0>        -0.0470
     26 C22        -3.5450   -3.2021    1.2390 C.ar      1 <0>        -0.0435
     27 C23        -2.6872   -4.2198    1.6501 C.ar      1 <0>        -0.1376
     28 C24        -3.5012   -5.3310    2.1668 C.2       1 <0>         0.5687
     29 O2         -3.0532   -6.3689    2.6153 O.2       1 <0>        -0.5251
     30 N3         -4.8090   -5.0377    2.0742 N.am      1 <0>        -0.7236
     31 C25        -4.9478   -3.6986    1.4912 C.3       1 <0>         0.1448
     32 C26        -0.3867   -1.0704   -2.2290 C.2       1 <0>         0.4303
     33 O3         -1.4390   -1.4719   -1.7917 O.2       1 <0>        -0.4517
     34 O4         -0.1506   -1.1083   -3.5499 O.3       1 <0>        -0.3530
     35 C27        -1.1878   -1.6359   -4.3794 C.3       1 <0>         0.0364
     36 O5          1.4030    0.5158   -1.9268 O.3       1 <0>        -0.5193
     37 H2          0.9864    1.9017    0.2018 H         1 <0>         0.0986
     38 H3         -0.3647    1.8898   -0.9570 H         1 <0>         0.0944
     39 H4         -0.6925    1.8757    0.7925 H         1 <0>         0.0826
     40 H5          1.3135   -2.6029   -1.2879 H         1 <0>         0.1035
     41 H6          2.6379   -1.4147   -1.0962 H         1 <0>         0.1271
     42 H7          3.1760   -4.0863    1.2766 H         1 <0>         0.1299
     43 H8          3.3777   -6.4148    2.0726 H         1 <0>         0.1264
     44 H9          1.4227   -7.7342    2.6620 H         1 <0>         0.1255
     45 H10        -0.8619   -6.8015    2.4775 H         1 <0>         0.1518
     46 H11        -1.9125    1.9655   -1.1544 H         1 <0>         0.1356
     47 H12        -4.2479    2.6877   -1.5068 H         1 <0>         0.1246
     48 H13        -6.1261    1.3105   -0.8104 H         1 <0>         0.1240
     49 H14        -5.7761   -0.8897    0.2698 H         1 <0>         0.1343
     50 H15        -5.5393   -5.6148    2.3469 H         1 <0>         0.4267
     51 H16        -5.4595   -3.0369    2.1901 H         1 <0>         0.1001
     52 H17        -5.5003   -3.7534    0.5532 H         1 <0>         0.0997
     53 H18        -0.8686   -1.6093   -5.4213 H         1 <0>         0.1065
     54 H19        -1.3964   -2.6657   -4.0895 H         1 <0>         0.0617
     55 H20        -2.0894   -1.0351   -4.2601 H         1 <0>         0.0644
     56 H21         1.8396    0.2451   -2.7461 H         1 <0>         0.3986
@<TRIPOS>BOND
     1    1    2 1
     2    1   37 1
     3    1   38 1
     4    1   39 1
     5    2    7 1
     6    2   18 1
     7    2    3 1
     8    3    4 1
     9    3   32 1
    10    3   36 1
    11    4    5 1
    12    4   40 1
    13    4   41 1
    14    5    6 1
    15    5    7 1
    16    5    8 1
    17    8   16 1
    18    8    9 1
    19    9   14 ar
    20    9   10 ar
    21   10   11 ar
    22   10   42 1
    23   11   12 ar
    24   11   43 1
    25   12   13 ar
    26   12   44 1
    27   13   14 ar
    28   13   45 1
    29   14   15 1
    30   15   27 ar
    31   15   16 ar
    32   16   17 ar
    33   17   25 ar
    34   17   18 1
    35   18   19 1
    36   19   24 ar
    37   19   20 ar
    38   20   21 ar
    39   20   46 1
    40   21   22 ar
    41   21   47 1
    42   22   23 ar
    43   22   48 1
    44   23   24 ar
    45   23   49 1
    46   24   25 1
    47   25   26 ar
    48   26   31 1
    49   26   27 ar
    50   27   28 1
    51   28   29 2
    52   28   30 am
    53   30   31 1
    54   30   50 1
    55   31   51 1
    56   31   52 1
    57   32   33 2
    58   32   34 1
    59   34   35 1
    60   35   53 1
    61   35   54 1
    62   35   55 1
    63   36   56 1
@<TRIPOS>MOLECULE
CHEMBL249821
   65    69     0     0     0
SMALL
USER_CHARGES

@<TRIPOS>ATOM
      1 C1         -0.0795    1.3146   -0.0505 C.3       1 <0>        -0.1086
      2 C2         -0.9732    0.1130    0.1187 C.ar      1 <0>        -0.0733
      3 C3         -1.6456   -0.3908   -0.9497 C.ar      1 <0>        -0.0386
      4 C4         -2.4830   -1.5097   -0.8118 C.ar      1 <0>        -0.0315
      5 C5         -2.6412   -2.1236    0.4173 C.ar      1 <0>        -0.0379
      6 C6         -1.9566   -1.6195    1.5322 C.ar      1 <0>        -0.0175
      7 C7         -1.1080   -0.4909    1.3791 C.ar      1 <0>         0.1915
      8 N1         -0.4582   -0.0265    2.4534 N.ar      1 <0>        -0.4945
      9 C8         -0.6226   -0.6338    3.6148 C.ar      1 <0>         0.4863
     10 N2         -1.4198   -1.6974    3.7398 N.ar      1 <0>        -0.2862
     11 N3         -2.0781   -2.1790    2.7417 N.ar      1 <0>        -0.0994
     12 N4          0.0477   -0.1566    4.7282 N.pl3     1 <0>        -0.6344
     13 C9         -0.0221   -0.8535    5.9380 C.ar      1 <0>         0.2308
     14 C10         0.0084   -2.2423    5.9441 C.ar      1 <0>        -0.1341
     15 C11        -0.0607   -2.9277    7.1410 C.ar      1 <0>         0.0095
     16 C12        -0.1602   -2.2331    8.3326 C.ar      1 <0>        -0.7030
     17 C13        -0.1909   -0.8505    8.3301 C.ar      1 <0>        -0.0026
     18 C14        -0.1163   -0.1588    7.1372 C.ar      1 <0>        -0.1640
     19 S1         -0.2488   -3.1116    9.8574 S.o2      1 <0>         2.6966
     20 O1         -0.8859   -2.2469   10.7879 O.2       1 <0>        -0.9472
     21 O2         -0.7512   -4.4053    9.5522 O.2       1 <0>        -0.9369
     22 N5          1.3043   -3.3211   10.3927 N.pl3     1 <0>        -1.1172
     23 C15         2.1128   -2.1584   10.7678 C.3       1 <0>         0.0926
     24 C16         3.3346   -2.6223   11.5635 C.3       1 <0>        -0.0137
     25 N6          4.1454   -1.4565   11.9396 N.4       1 <0>        -0.3933
     26 C17         3.4216   -0.6303   12.9395 C.3       1 <0>        -0.0136
     27 C18         4.5566    0.1700   13.6264 C.3       1 <0>        -0.1451
     28 C19         5.7101   -0.8568   13.6967 C.3       1 <0>        -0.1456
     29 C20         5.3914   -1.8951   12.6050 C.3       1 <0>        -0.0075
     30 C21        -3.2047   -2.0376   -1.9952 C.ar      1 <0>        -0.0321
     31 C22        -3.1535   -3.3970   -2.2958 C.ar      1 <0>        -0.1172
     32 C23        -3.8299   -3.8839   -3.4017 C.ar      1 <0>         0.1186
     33 C24        -4.5568   -3.0187   -4.2082 C.ar      1 <0>        -0.1235
     34 C25        -4.6088   -1.6698   -3.9115 C.ar      1 <0>        -0.0876
     35 C26        -3.9415   -1.1756   -2.8071 C.ar      1 <0>        -0.0329
     36 Cl1        -4.0152    0.5182   -2.4339 Cl        1 <0>        -0.0543
     37 O3         -3.7816   -5.2095   -3.6981 O.3       1 <0>        -0.4935
     38 H1          0.9282    0.9851   -0.3033 H         1 <0>         0.0779
     39 H2         -0.4668    1.9457   -0.8504 H         1 <0>         0.0750
     40 H3         -0.0537    1.8820    0.8798 H         1 <0>         0.0789
     41 H4         -1.5346    0.0756   -1.9174 H         1 <0>         0.1475
     42 H5         -3.2868   -2.9836    0.5176 H         1 <0>         0.1531
     43 H6          0.5657    0.6613    4.6689 H         1 <0>         0.4307
     44 H7          0.0858   -2.7854    5.0138 H         1 <0>         0.1404
     45 H8         -0.0374   -4.0074    7.1464 H         1 <0>         0.1472
     46 H9         -0.2686   -0.3111    9.2625 H         1 <0>         0.1437
     47 H10        -0.1355    0.9210    7.1363 H         1 <0>         0.1401
     48 H11         1.6786   -4.2136   10.4579 H         1 <0>         0.4263
     49 H12         2.4413   -1.6386    9.8678 H         1 <0>         0.0885
     50 H13         1.5156   -1.4828   11.3802 H         1 <0>         0.1020
     51 H14         3.0062   -3.1421   12.4635 H         1 <0>         0.1406
     52 H15         3.9319   -3.2979   10.9511 H         1 <0>         0.1392
     53 H16         2.7199    0.0428   12.4469 H         1 <0>         0.1389
     54 H17         2.9063   -1.2639   13.6614 H         1 <0>         0.1381
     55 H18         4.8425    1.0305   13.0215 H         1 <0>         0.0990
     56 H19         4.2571    0.4828   14.6267 H         1 <0>         0.1182
     57 H20         6.6631   -0.3701   13.4893 H         1 <0>         0.1059
     58 H21         5.7332   -1.3333   14.6768 H         1 <0>         0.1048
     59 H22         5.2455   -2.8762   13.0569 H         1 <0>         0.1324
     60 H23         6.2051   -1.9342   11.8809 H         1 <0>         0.1338
     61 H24        -2.5875   -4.0693   -1.6681 H         1 <0>         0.1429
     62 H25        -5.0832   -3.4009   -5.0704 H         1 <0>         0.1441
     63 H26        -5.1757   -1.0011   -4.5421 H         1 <0>         0.1452
     64 H27        -4.4838   -5.7307   -3.2853 H         1 <0>         0.3980
     65 H28         4.3626   -0.9051   11.1230 H         1 <0>         0.4285
@<TRIPOS>BOND
     1    1    2 1
     2    1   38 1
     3    1   39 1
     4    1   40 1
     5    2    7 ar
     6    2    3 ar
     7    3    4 ar
     8    3   41 1
     9    4    5 ar
    10    4   30 1
    11    5    6 ar
    12    5   42 1
    13    6   11 ar
    14    6    7 ar
    15    7    8 ar
    16    8    9 ar
    17    9   10 ar
    18    9   12 1
    19   10   11 ar
    20   12   13 1
    21   12   43 1
    22   13   18 ar
    23   13   14 ar
    24   14   15 ar
    25   14   44 1
    26   15   16 ar
    27   15   45 1
    28   16   17 ar
    29   16   19 1
    30   17   18 ar
    31   17   46 1
    32   18   47 1
    33   19   20 2
    34   19   21 2
    35   19   22 1
    36   22   23 1
    37   22   48 1
    38   23   24 1
    39   23   49 1
    40   23   50 1
    41   24   25 1
    42   24   51 1
    43   24   52 1
    44   25   29 1
    45   25   26 1
    46   25   65 1
    47   26   27 1
    48   26   53 1
    49   26   54 1
    50   27   28 1
    51   27   55 1
    52   27   56 1
    53   28   29 1
    54   28   57 1
    55   28   58 1
    56   29   59 1
    57   29   60 1
    58   30   35 ar
    59   30   31 ar
    60   31   32 ar
    61   31   61 1
    62   32   33 ar
    63   32   37 1
    64   33   34 ar
    65   33   62 1
    66   34   35 ar
    67   34   63 1
    68   35   36 1
    69   37   64 1
@<TRIPOS>MOLECULE
CHEMBL82433
   60    64     0     0     0
SMALL
USER_CHARGES

@<TRIPOS>ATOM
      1 C1         -0.0167    1.3786    0.0096 C.ar      1 <0>        -0.1102
      2 C2          1.1696    2.0890    0.0021 C.ar      1 <0>        -0.0987
      3 C3          2.3774    1.4191   -0.0134 C.ar      1 <0>        -0.1158
      4 C4          2.3995    0.0308   -0.0211 C.ar      1 <0>         0.1162
      5 C5          1.2066   -0.6797   -0.0130 C.ar      1 <0>        -0.1164
      6 C6          0.0021   -0.0041    0.0020 C.ar      1 <0>        -0.0997
      7 N1          3.6231   -0.6517   -0.0373 N.pl3     1 <0>        -0.4432
      8 C7          4.6659   -0.4205   -0.8839 C.2       1 <0>         0.2755
      9 N2          5.6449   -1.2355   -0.6203 N.2       1 <0>        -0.4847
     10 C8          5.2988   -2.0462    0.4136 C.ar      1 <0>         0.0486
     11 C9          3.9984   -1.6796    0.8057 C.ar      1 <0>         0.0594
     12 C10         3.3747   -2.3394    1.8571 C.ar      1 <0>        -0.1008
     13 C11         4.0226   -3.3449    2.5162 C.ar      1 <0>        -0.0799
     14 C12         5.3173   -3.7202    2.1409 C.ar      1 <0>        -0.0825
     15 C13         5.9546   -3.0764    1.0869 C.ar      1 <0>        -0.0337
     16 C14         6.0083   -4.8121    2.8649 C.2       1 <0>         0.0713
     17 C15         7.1695   -4.5475    3.6259 C.2       1 <0>        -0.1979
     18 C16         7.7866   -5.5548    4.2795 C.2       1 <0>         0.1172
     19 N3          7.3081   -6.8253    4.2173 N.am      1 <0>        -0.5023
     20 C17         6.2058   -7.1204    3.5039 C.2       1 <0>         0.5184
     21 O1          5.7959   -8.2698    3.4639 O.2       1 <0>        -0.5502
     22 C18         5.5234   -6.1105    2.8121 C.2       1 <0>        -0.2280
     23 C19         8.0048   -7.8927    4.9394 C.3       1 <0>         0.0969
     24 C20         7.4292   -8.0129    6.3519 C.3       1 <0>        -0.1672
     25 C21         8.1568   -9.1277    7.1060 C.3       1 <0>        -0.0051
     26 N4          7.6041   -9.2431    8.4621 N.4       1 <0>        -0.3827
     27 C22         7.8834   -8.0109    9.2092 C.3       1 <0>        -0.0122
     28 C23         7.2400   -8.0932   10.5951 C.3       1 <0>        -0.1463
     29 C24         7.8196   -9.2926   11.3506 C.3       1 <0>        -0.1393
     30 C25         7.5880  -10.5626   10.5268 C.3       1 <0>        -0.1469
     31 C26         8.2186  -10.3888    9.1435 C.3       1 <0>        -0.0065
     32 H1         -0.9598    1.9046    0.0260 H         1 <0>         0.1335
     33 H2          1.1518    3.1689    0.0080 H         1 <0>         0.1364
     34 H3          3.3036    1.9745   -0.0200 H         1 <0>         0.1323
     35 H4          1.2206   -1.7596   -0.0193 H         1 <0>         0.1292
     36 H5         -0.9261   -0.5562    0.0082 H         1 <0>         0.1351
     37 H6          4.6774    0.3296   -1.6609 H         1 <0>         0.2192
     38 H7          2.3756   -2.0565    2.1541 H         1 <0>         0.1282
     39 H8          3.5323   -3.8537    3.3330 H         1 <0>         0.1336
     40 H9          6.9546   -3.3647    0.7982 H         1 <0>         0.1362
     41 H10         7.5619   -3.5430    3.6841 H         1 <0>         0.1526
     42 H11         8.6737   -5.3480    4.8598 H         1 <0>         0.1650
     43 H12         4.6353   -6.3408    2.2423 H         1 <0>         0.1546
     44 H13         7.8707   -8.8365    4.4108 H         1 <0>         0.1111
     45 H14         9.0675   -7.6574    4.9989 H         1 <0>         0.1016
     46 H15         7.5633   -7.0691    6.8804 H         1 <0>         0.0925
     47 H16         6.3665   -8.2481    6.2923 H         1 <0>         0.0970
     48 H17         8.0227  -10.0714    6.5774 H         1 <0>         0.1365
     49 H18         9.2195   -8.8924    7.1655 H         1 <0>         0.1333
     50 H19         8.9612   -7.8878    9.3163 H         1 <0>         0.1293
     51 H20         7.4731   -7.1579    8.6688 H         1 <0>         0.1294
     52 H21         7.4501   -7.1781   11.1489 H         1 <0>         0.1120
     53 H22         6.1621   -8.2160   10.4893 H         1 <0>         0.0874
     54 H23         8.8891   -9.1460   11.5016 H         1 <0>         0.0819
     55 H24         7.3238   -9.3892   12.3165 H         1 <0>         0.0944
     56 H25         8.0469  -11.4127   11.0318 H         1 <0>         0.1129
     57 H26         6.5174  -10.7367   10.4196 H         1 <0>         0.0878
     58 H27         8.0557  -11.2913    8.5544 H         1 <0>         0.1311
     59 H28         9.2892  -10.2150    9.2519 H         1 <0>         0.1290
     60 H29         6.6062   -9.3816    8.4069 H         1 <0>         0.4238
@<TRIPOS>BOND
     1    1    6 ar
     2    1    2 ar
     3    1   32 1
     4    2    3 ar
     5    2   33 1
     6    3    4 ar
     7    3   34 1
     8    4    5 ar
     9    4    7 1
    10    5    6 ar
    11    5   35 1
    12    6   36 1
    13    7   11 1
    14    7    8 1
    15    8    9 2
    16    8   37 1
    17    9   10 1
    18   10   15 ar
    19   10   11 ar
    20   11   12 ar
    21   12   13 ar
    22   12   38 1
    23   13   14 ar
    24   13   39 1
    25   14   15 ar
    26   14   16 1
    27   15   40 1
    28   16   22 2
    29   16   17 1
    30   17   18 2
    31   17   41 1
    32   18   19 1
    33   18   42 1
    34   19   20 am
    35   19   23 1
    36   20   21 2
    37   20   22 1
    38   22   43 1
    39   23   24 1
    40   23   44 1
    41   23   45 1
    42   24   25 1
    43   24   46 1
    44   24   47 1
    45   25   26 1
    46   25   48 1
    47   25   49 1
    48   26   31 1
    49   26   27 1
    50   26   60 1
    51   27   28 1
    52   27   50 1
    53   27   51 1
    54   28   29 1
    55   28   52 1
    56   28   53 1
    57   29   30 1
    58   29   54 1
    59   29   55 1
    60   30   31 1
    61   30   56 1
    62   30   57 1
    63   31   58 1
    64   31   59 1
@<TRIPOS>MOLECULE
CHEMBL94542
   34    37     0     0     0
SMALL
USER_CHARGES

@<TRIPOS>ATOM
      1 C1         -0.0169    1.3937    0.0097 C.ar      1 <0>        -0.1532
      2 C2          1.1802    2.0792    0.0020 C.ar      1 <0>         0.1062
      3 N1          2.3305    1.4332   -0.0129 N.ar      1 <0>        -0.4800
      4 C3          2.3923    0.1152   -0.0206 C.ar      1 <0>         0.1062
      5 C4          1.2429   -0.6476   -0.0138 C.ar      1 <0>        -0.1563
      6 C5          0.0021   -0.0041    0.0020 C.ar      1 <0>         0.0055
      7 C6         -1.2602   -0.7832    0.0104 C.2       1 <0>        -0.1598
      8 C7         -2.1306   -0.7223    1.1203 C.2       1 <0>         0.1977
      9 N2         -3.2449   -1.4142    1.1202 N.2       1 <0>        -0.4480
     10 C8         -3.5775   -2.1845    0.0796 C.2       1 <0>         0.2634
     11 C9         -4.6846   -3.0085   -0.1707 C.2       1 <0>        -0.1771
     12 C10        -4.4974   -3.5790   -1.4371 C.2       1 <0>         0.1097
     13 N3         -3.3653   -3.1445   -1.9336 N.2       1 <0>        -0.3059
     14 N4         -2.7627   -2.2737   -1.0189 N.pl3     1 <0>        -0.3116
     15 C11        -1.5983   -1.5653   -1.0592 C.2       1 <0>         0.1879
     16 C12        -5.8306   -3.2329    0.7301 C.2       1 <0>        -0.0572
     17 C13        -5.7935   -3.9807    1.8224 C.2       1 <0>        -0.1438
     18 C14        -7.1393   -3.9939    2.5094 C.3       1 <0>        -0.0982
     19 C15        -7.9051   -2.7961    1.9025 C.3       1 <0>        -0.1236
     20 C16        -7.2050   -2.6356    0.5356 C.3       1 <0>        -0.0861
     21 H1         -0.9548    1.9289    0.0260 H         1 <0>         0.1399
     22 H2          1.1757    3.1592    0.0078 H         1 <0>         0.1619
     23 H3          3.3556   -0.3729   -0.0328 H         1 <0>         0.1614
     24 H4          1.3009   -1.7260   -0.0208 H         1 <0>         0.1381
     25 H5         -1.8785   -0.1057    1.9704 H         1 <0>         0.1826
     26 H6         -5.1750   -4.2649   -1.9237 H         1 <0>         0.2030
     27 H7         -0.9506   -1.6242   -1.9214 H         1 <0>         0.1820
     28 H8         -4.9200   -4.5096    2.1742 H         1 <0>         0.1207
     29 H9         -7.6639   -4.9258    2.2983 H         1 <0>         0.0768
     30 H10        -7.0178   -3.8611    3.5844 H         1 <0>         0.0716
     31 H11        -8.9620   -3.0314    1.7774 H         1 <0>         0.0734
     32 H12        -7.7753   -1.9010    2.5108 H         1 <0>         0.0705
     33 H13        -7.1262   -1.5814    0.2698 H         1 <0>         0.0675
     34 H14        -7.7506   -3.1819   -0.2338 H         1 <0>         0.0750
@<TRIPOS>BOND
     1    1    6 ar
     2    1    2 ar
     3    1   21 1
     4    2    3 ar
     5    2   22 1
     6    3    4 ar
     7    4    5 ar
     8    4   23 1
     9    5    6 ar
    10    5   24 1
    11    6    7 1
    12    7   15 2
    13    7    8 1
    14    8    9 2
    15    8   25 1
    16    9   10 1
    17   10   14 1
    18   10   11 2
    19   11   12 1
    20   11   16 1
    21   12   13 2
    22   12   26 1
    23   13   14 1
    24   14   15 1
    25   15   27 1
    26   16   20 1
    27   16   17 2
    28   17   18 1
    29   17   28 1
    30   18   19 1
    31   18   29 1
    32   18   30 1
    33   19   20 1
    34   19   31 1
    35   19   32 1
    36   20   33 1
    37   20   34 1
@<TRIPOS>MOLECULE
CHEMBL494872
   63    67     0     0     0
SMALL
USER_CHARGES

@<TRIPOS>ATOM
      1 C1         -1.4463    1.8178   -7.1174 C.3       1 <0>         0.0222
      2 O1         -1.4802    0.3901   -7.1674 O.3       1 <0>        -0.3010
      3 C2         -0.5478   -0.2754   -6.4355 C.ar      1 <0>         0.1283
      4 C3          0.3576    0.4279   -5.6957 C.ar      1 <0>        -0.1773
      5 C4          1.3206   -0.2596   -4.9391 C.ar      1 <0>        -0.0826
      6 C5          2.2698    0.4313   -4.1637 C.ar      1 <0>        -0.0418
      7 C6          3.1777   -0.3009   -3.4519 C.ar      1 <0>        -0.1685
      8 C7          3.1454   -1.6920   -3.5073 C.ar      1 <0>         0.1324
      9 N1          2.2596   -2.3333   -4.2307 N.ar      1 <0>        -0.4720
     10 C8          1.3435   -1.6772   -4.9508 C.ar      1 <0>         0.1421
     11 C9          0.3977   -2.3721   -5.7232 C.ar      1 <0>        -0.1691
     12 C10        -0.5303   -1.6784   -6.4442 C.ar      1 <0>         0.1387
     13 O2         -1.4462   -2.3555   -7.1852 O.3       1 <0>        -0.3012
     14 C11        -1.3787   -3.7826   -7.1544 C.3       1 <0>         0.0217
     15 C12         2.2852    1.9376   -4.1200 C.3       1 <0>         0.1500
     16 N2          3.2811    2.3876   -3.1444 N.am      1 <0>        -0.6084
     17 C13         2.9111    2.4908   -1.7345 C.3       1 <0>         0.1107
     18 C14         4.0431    2.0000   -0.8354 C.3       1 <0>        -0.1263
     19 C15         5.3377    2.6639   -1.2233 C.ar      1 <0>         0.0213
     20 C16         5.5736    2.9821   -2.5595 C.ar      1 <0>        -0.1454
     21 C17         6.7773    3.5776   -2.9340 C.ar      1 <0>        -0.0206
     22 C18         7.7318    3.8645   -1.9764 C.ar      1 <0>        -0.1350
     23 C19         7.5003    3.5638   -0.6491 C.ar      1 <0>        -0.0537
     24 C20         6.3001    2.9599   -0.2628 C.ar      1 <0>        -0.1515
     25 C21         6.0546    2.6374    1.1588 C.2       1 <0>         0.5691
     26 O3          5.0663    2.0049    1.4767 O.2       1 <0>        -0.5067
     27 N3          6.9264    3.0446    2.1025 N.am      1 <0>        -0.6666
     28 C22         6.6446    2.8274    3.4560 C.ar      1 <0>         0.1345
     29 C23         5.9819    1.6727    3.8519 C.ar      1 <0>        -0.0578
     30 C24         5.7048    1.4605    5.1879 C.ar      1 <0>        -0.1329
     31 C25         6.0870    2.3981    6.1329 C.ar      1 <0>         0.1405
     32 C26         6.7476    3.5498    5.7405 C.ar      1 <0>        -0.2026
     33 C27         7.0319    3.7634    4.4057 C.ar      1 <0>        -0.0697
     34 C28         7.1623    4.5683    6.7710 C.3       1 <0>         0.5146
     35 F1          7.8078    5.6359    6.1380 F         1 <0>        -0.1728
     36 F2          6.0294    5.0402    7.4424 F         1 <0>        -0.1695
     37 F3          8.0348    3.9740    7.6891 F         1 <0>        -0.1698
     38 F4          5.8145    2.1887    7.4395 F         1 <0>        -0.1208
     39 C29         4.5246    2.6944   -3.5602 C.2       1 <0>         0.5669
     40 O4          4.7814    2.7385   -4.7474 O.2       1 <0>        -0.5216
     41 H1         -1.5904    2.1488   -6.0889 H         1 <0>         0.0577
     42 H2         -0.4815    2.1713   -7.4811 H         1 <0>         0.0587
     43 H3         -2.2412    2.2223   -7.7440 H         1 <0>         0.1055
     44 H4          0.3340    1.5076   -5.6922 H         1 <0>         0.1438
     45 H5          3.9198    0.1988   -2.8470 H         1 <0>         0.1320
     46 H6          3.8695   -2.2576   -2.9396 H         1 <0>         0.1585
     47 H7          0.4021   -3.4519   -5.7426 H         1 <0>         0.1510
     48 H8         -2.1637   -4.1972   -7.7868 H         1 <0>         0.1056
     49 H9         -0.4057   -4.1083   -7.5223 H         1 <0>         0.0599
     50 H10        -1.5151   -4.1307   -6.1305 H         1 <0>         0.0599
     51 H11         2.5402    2.3271   -5.1056 H         1 <0>         0.1116
     52 H12         1.3004    2.3027   -3.8287 H         1 <0>         0.0993
     53 H13         2.6910    3.5317   -1.4972 H         1 <0>         0.0732
     54 H14         2.0219    1.8872   -1.5525 H         1 <0>         0.0937
     55 H15         3.8105    2.2401    0.2021 H         1 <0>         0.1395
     56 H16         4.1453    0.9199   -0.9402 H         1 <0>         0.0963
     57 H17         6.9638    3.8141   -3.9712 H         1 <0>         0.1449
     58 H18         8.6637    4.3260   -2.2681 H         1 <0>         0.1424
     59 H19         8.2493    3.7957    0.0936 H         1 <0>         0.1332
     60 H20         7.7493    3.4881    1.8435 H         1 <0>         0.4155
     61 H21         5.6834    0.9415    3.1153 H         1 <0>         0.1612
     62 H22         5.1892    0.5629    5.4961 H         1 <0>         0.1554
     63 H23         7.5515    4.6597    4.1005 H         1 <0>         0.1532
@<TRIPOS>BOND
     1    1    2 1
     2    1   41 1
     3    1   42 1
     4    1   43 1
     5    2    3 1
     6    3   12 ar
     7    3    4 ar
     8    4    5 ar
     9    4   44 1
    10    5   10 ar
    11    5    6 ar
    12    6    7 ar
    13    6   15 1
    14    7    8 ar
    15    7   45 1
    16    8    9 ar
    17    8   46 1
    18    9   10 ar
    19   10   11 ar
    20   11   12 ar
    21   11   47 1
    22   12   13 1
    23   13   14 1
    24   14   48 1
    25   14   49 1
    26   14   50 1
    27   15   16 1
    28   15   51 1
    29   15   52 1
    30   16   39 am
    31   16   17 1
    32   17   18 1
    33   17   53 1
    34   17   54 1
    35   18   19 1
    36   18   55 1
    37   18   56 1
    38   19   24 ar
    39   19   20 ar
    40   20   21 ar
    41   20   39 1
    42   21   22 ar
    43   21   57 1
    44   22   23 ar
    45   22   58 1
    46   23   24 ar
    47   23   59 1
    48   24   25 1
    49   25   26 2
    50   25   27 am
    51   27   28 1
    52   27   60 1
    53   28   33 ar
    54   28   29 ar
    55   29   30 ar
    56   29   61 1
    57   30   31 ar
    58   30   62 1
    59   31   32 ar
    60   31   38 1
    61   32   33 ar
    62   32   34 1
    63   33   63 1
    64   34   35 1
    65   34   36 1
    66   34   37 1
    67   39   40 2
@<TRIPOS>MOLECULE
CHEMBL379896
   43    45     0     0     0
SMALL
USER_CHARGES

@<TRIPOS>ATOM
      1 C1         -4.6066   -1.4605    1.1887 C.3       1 <0>         0.0304
      2 O1         -3.1909   -1.3704    1.0160 O.3       1 <0>        -0.3760
      3 C2         -2.6571   -2.3173    0.0883 C.3       1 <0>         0.0666
      4 C3         -1.1423   -2.1301   -0.0167 C.3       1 <0>         0.0558
      5 N1         -0.5181   -2.4560    1.2726 N.3       1 <0>        -0.5293
      6 C4          0.8181   -1.8549    1.3775 C.3       1 <0>         0.0418
      7 C5          1.3584   -2.0632    2.7963 C.3       1 <0>         0.1254
      8 N2          1.2950   -3.4978    3.1144 N.pl3     1 <0>        -0.5954
      9 C6          0.0211   -4.2018    2.9031 C.3       1 <0>         0.1281
     10 C7         -0.4665   -3.9094    1.4801 C.3       1 <0>         0.0382
     11 C8          2.4064   -4.1684    3.6010 C.ar      1 <0>         0.4653
     12 C9          3.5748   -3.4739    3.9018 C.ar      1 <0>        -0.3344
     13 C10         4.6620   -4.1928    4.3872 C.ar      1 <0>         0.4394
     14 N3          4.5471   -5.5102    4.5457 N.ar      1 <0>        -0.5497
     15 C11         3.4240   -6.1314    4.2496 C.ar      1 <0>         0.3736
     16 N4          2.3702   -5.4856    3.7927 N.ar      1 <0>        -0.5961
     17 N5          5.8501   -3.5465    4.7016 N.pl3     1 <0>        -0.5901
     18 C12         6.9571   -4.2816    5.0810 C.2       1 <0>         0.3031
     19 N6          7.0433   -5.5836    5.2816 N.2       1 <0>        -0.5180
     20 C13         8.1704   -6.1473    5.6421 C.2       1 <0>         0.1635
     21 C14         9.2591   -5.3021    5.7992 C.2       1 <0>        -0.2146
     22 S1          8.5169   -3.7304    5.3898 S.3       1 <0>         0.1920
     23 C15        10.6059   -5.6063    6.1792 C.1       1 <0>         0.3036
     24 N7         11.6743   -5.8476    6.4806 N.1       1 <0>        -0.4001
     25 H1         -4.9334   -0.7092    1.9076 H         1 <0>         0.0855
     26 H2         -5.1009   -1.2878    0.2327 H         1 <0>         0.0383
     27 H3         -4.8652   -2.4531    1.5574 H         1 <0>         0.0396
     28 H4         -2.8753   -3.3276    0.4342 H         1 <0>         0.0490
     29 H5         -3.1110   -2.1624   -0.8906 H         1 <0>         0.0523
     30 H6         -0.7472   -2.7904   -0.7888 H         1 <0>         0.0529
     31 H7         -0.9211   -1.0948   -0.2760 H         1 <0>         0.0848
     32 H8          1.4877   -2.3294    0.6600 H         1 <0>         0.0384
     33 H9          0.7545   -0.7876    1.1655 H         1 <0>         0.0915
     34 H10         2.3923   -1.7220    2.8482 H         1 <0>         0.0885
     35 H11         0.7490   -1.5035    3.5059 H         1 <0>         0.0815
     36 H12         0.1708   -5.2745    3.0256 H         1 <0>         0.1032
     37 H13        -0.7168   -3.8477    3.6230 H         1 <0>         0.0737
     38 H14        -1.4617   -4.3320    1.3425 H         1 <0>         0.0873
     39 H15         0.2210   -4.3552    0.7612 H         1 <0>         0.0389
     40 H16         3.6355   -2.4047    3.7615 H         1 <0>         0.1424
     41 H17         3.3637   -7.2007    4.3893 H         1 <0>         0.1998
     42 H18         5.9030   -2.5791    4.6549 H         1 <0>         0.4397
     43 H19         8.2472   -7.2117    5.8080 H         1 <0>         0.1893
@<TRIPOS>BOND
     1    1    2 1
     2    1   25 1
     3    1   26 1
     4    1   27 1
     5    2    3 1
     6    3    4 1
     7    3   28 1
     8    3   29 1
     9    4    5 1
    10    4   30 1
    11    4   31 1
    12    5   10 1
    13    5    6 1
    14    6    7 1
    15    6   32 1
    16    6   33 1
    17    7    8 1
    18    7   34 1
    19    7   35 1
    20    8    9 1
    21    8   11 1
    22    9   10 1
    23    9   36 1
    24    9   37 1
    25   10   38 1
    26   10   39 1
    27   11   16 ar
    28   11   12 ar
    29   12   13 ar
    30   12   40 1
    31   13   14 ar
    32   13   17 1
    33   14   15 ar
    34   15   16 ar
    35   15   41 1
    36   17   18 1
    37   17   42 1
    38   18   22 1
    39   18   19 2
    40   19   20 1
    41   20   21 2
    42   20   43 1
    43   21   22 1
    44   21   23 1
    45   23   24 3
@<TRIPOS>MOLECULE
CHEMBL379896__1
   44    46     0     0     0
SMALL
USER_CHARGES

@<TRIPOS>ATOM
      1 C1          1.5202   -1.3814   -4.3701 C.3       1 <0>         0.0297
      2 O1          0.9357   -1.3491   -3.0665 O.3       1 <0>        -0.3778
      3 C2          1.4339   -2.3539   -2.1810 C.3       1 <0>         0.0648
      4 C3          0.7419   -2.2252   -0.8225 C.3       1 <0>         0.0564
      5 N1         -0.6888   -2.5236   -0.9716 N.3       1 <0>        -0.5307
      6 C4         -1.4619   -1.9670    0.1466 C.3       1 <0>         0.0400
      7 C5         -2.9582   -2.1400   -0.1352 C.3       1 <0>         0.1038
      8 N2         -3.2180   -3.5582   -0.4259 N.pl3     1 <0>        -0.5342
      9 C6         -2.3875   -4.2239   -1.4409 C.3       1 <0>         0.1065
     10 C7         -0.9137   -3.9688   -1.1078 C.3       1 <0>         0.0355
     11 C8         -4.2193   -4.2489    0.2389 C.ar      1 <0>         0.4891
     12 C9         -5.0717   -3.5855    1.1171 C.ar      1 <0>        -0.2910
     13 C10        -6.0602   -4.3236    1.7594 C.ar      1 <0>         0.4520
     14 N3         -6.1550   -5.6291    1.5130 N.ar      1 <0>        -0.5679
     15 C11        -5.3287   -6.2208    0.6752 C.ar      1 <0>         0.4341
     16 N4         -4.3833   -5.5556    0.0427 N.ar      1 <0>        -0.5359
     17 N5         -6.9352   -3.7086    2.6450 N.pl3     1 <0>        -0.5866
     18 C12        -6.9352   -2.3326    2.7728 C.2       1 <0>         0.2424
     19 N6         -6.1253   -1.4595    2.2029 N.2       1 <0>        -0.5505
     20 C13        -6.2456   -0.1722    2.4187 C.2       1 <0>         0.1437
     21 C14        -7.2661    0.2160    3.2744 C.2       1 <0>        -0.1620
     22 S1         -7.9721   -1.3718    3.6858 S.3       1 <0>         0.3030
     23 C15        -7.6503    1.5269    3.7043 C.1       1 <0>         0.2790
     24 N7         -7.9551    2.5667    4.0453 N.1       1 <0>        -0.3540
     25 H1          2.5971   -1.2335   -4.2891 H         1 <0>         0.0415
     26 H2          1.3201   -2.3471   -4.8342 H         1 <0>         0.0403
     27 H3          1.0895   -0.5883   -4.9812 H         1 <0>         0.0879
     28 H4          1.2320   -3.3398   -2.5997 H         1 <0>         0.0487
     29 H5          2.5090   -2.2261   -2.0546 H         1 <0>         0.0569
     30 H6          1.1883   -2.9282   -0.1193 H         1 <0>         0.0573
     31 H7          0.8639   -1.2091   -0.4474 H         1 <0>         0.0903
     32 H8         -1.2018   -2.4921    1.0657 H         1 <0>         0.0440
     33 H9         -1.2325   -0.9070    0.2554 H         1 <0>         0.1055
     34 H10        -3.5332   -1.8341    0.7388 H         1 <0>         0.1049
     35 H11        -3.2417   -1.5322   -0.9945 H         1 <0>         0.1058
     36 H12        -2.5851   -5.2958   -1.4302 H         1 <0>         0.1123
     37 H13        -2.6161   -3.8164   -2.4257 H         1 <0>         0.0993
     38 H14        -0.2866   -4.3607   -1.9086 H         1 <0>         0.1008
     39 H15        -0.6612   -4.4661   -0.1712 H         1 <0>         0.0445
     40 H16        -4.9680   -2.5254    1.2952 H         1 <0>         0.2256
     41 H17        -5.4320   -7.2812    0.4980 H         1 <0>         0.2486
     42 H18        -7.5464   -4.2448    3.1739 H         1 <0>         0.4471
     43 H19        -5.5861    0.5469    1.9558 H         1 <0>         0.2043
     44 H20        -6.8416   -6.1512    1.9568 H         1 <0>         0.4449
@<TRIPOS>BOND
     1    1    2 1
     2    1   25 1
     3    1   26 1
     4    1   27 1
     5    2    3 1
     6    3    4 1
     7    3   28 1
     8    3   29 1
     9    4    5 1
    10    4   30 1
    11    4   31 1
    12    5   10 1
    13    5    6 1
    14    6    7 1
    15    6   32 1
    16    6   33 1
    17    7    8 1
    18    7   34 1
    19    7   35 1
    20    8    9 1
    21    8   11 1
    22    9   10 1
    23    9   36 1
    24    9   37 1
    25   10   38 1
    26   10   39 1
    27   11   16 ar
    28   11   12 ar
    29   12   13 ar
    30   12   40 1
    31   13   14 ar
    32   13   17 1
    33   14   15 ar
    34   14   44 1
    35   15   16 ar
    36   15   41 1
    37   17   18 1
    38   17   42 1
    39   18   22 1
    40   18   19 2
    41   19   20 1
    42   20   21 2
    43   20   43 1
    44   21   22 1
    45   21   23 1
    46   23   24 3
@<TRIPOS>MOLECULE
CHEMBL379896__2
   44    46     0     0     0
SMALL
USER_CHARGES

@<TRIPOS>ATOM
      1 C1          1.5426   -2.2642   -4.6351 C.3       1 <0>         0.0300
      2 O1          0.8957   -1.8883   -3.4176 O.3       1 <0>        -0.4031
      3 C2          1.3812   -2.5786   -2.2643 C.3       1 <0>         0.0259
      4 C3          0.6215   -2.0993   -1.0258 C.3       1 <0>        -0.0019
      5 N1         -0.7987   -2.4516   -1.1557 N.4       1 <0>        -0.3835
      6 C4         -1.5530   -1.8532   -0.0471 C.3       1 <0>        -0.0211
      7 C5         -3.0484   -2.1233   -0.2435 C.3       1 <0>         0.1001
      8 N2         -3.2440   -3.5731   -0.3982 N.pl3     1 <0>        -0.6174
      9 C6         -2.4085   -4.2847   -1.3778 C.3       1 <0>         0.1043
     10 C7         -0.9433   -3.9126   -1.1278 C.3       1 <0>        -0.0264
     11 C8         -4.1886   -4.2496    0.3580 C.ar      1 <0>         0.4578
     12 C9         -5.0484   -3.5526    1.2023 C.ar      1 <0>        -0.3294
     13 C10        -5.9784   -4.2776    1.9399 C.ar      1 <0>         0.4513
     14 N3         -6.0128   -5.6029    1.8128 N.ar      1 <0>        -0.5338
     15 C11        -5.1819   -6.2263    1.0028 C.ar      1 <0>         0.3821
     16 N4         -4.2906   -5.5751    0.2833 N.ar      1 <0>        -0.5946
     17 N5         -6.8580   -3.6291    2.7966 N.pl3     1 <0>        -0.5893
     18 C12        -7.7052   -4.3646    3.6034 C.2       1 <0>         0.2819
     19 N6         -7.8755   -5.6735    3.6303 N.2       1 <0>        -0.5135
     20 C13        -8.7222   -6.2367    4.4573 C.2       1 <0>         0.1555
     21 C14        -9.4237   -5.3832    5.2963 C.2       1 <0>        -0.1958
     22 S1         -8.7594   -3.8049    4.7898 S.3       1 <0>         0.2108
     23 C15       -10.4046   -5.6847    6.2952 C.1       1 <0>         0.2946
     24 N7        -11.1827   -5.9238    7.0875 N.1       1 <0>        -0.3844
     25 H1          2.6094   -2.0538   -4.5597 H         1 <0>         0.0561
     26 H2          1.3939   -3.3295   -4.8116 H         1 <0>         0.0526
     27 H3          1.1178   -1.6961   -5.4626 H         1 <0>         0.1011
     28 H4          1.2292   -3.6504   -2.3917 H         1 <0>         0.0754
     29 H5          2.4446   -2.3746   -2.1398 H         1 <0>         0.0992
     30 H6          1.0349   -2.5781   -0.1381 H         1 <0>         0.1432
     31 H7          0.7206   -1.0177   -0.9347 H         1 <0>         0.1410
     32 H8         -1.2250   -2.2928    0.8949 H         1 <0>         0.1341
     33 H9         -1.3776   -0.7776   -0.0269 H         1 <0>         0.1457
     34 H10        -3.6019   -1.7698    0.6264 H         1 <0>         0.1294
     35 H11        -3.3991   -1.6089   -1.1382 H         1 <0>         0.0979
     36 H12        -2.5388   -5.3602   -1.2577 H         1 <0>         0.1423
     37 H13        -2.6945   -3.9886   -2.3870 H         1 <0>         0.0911
     38 H14        -0.3185   -4.3545   -1.9039 H         1 <0>         0.1411
     39 H15        -0.6337   -4.2899   -0.1531 H         1 <0>         0.1342
     40 H16        -4.9945   -2.4769    1.2828 H         1 <0>         0.1443
     41 H17        -5.2355   -7.3020    0.9230 H         1 <0>         0.2069
     42 H18        -6.8778   -2.6598    2.8287 H         1 <0>         0.4411
     43 H19        -8.8661   -7.3067    4.4838 H         1 <0>         0.1925
     44 H20        -1.1534   -2.0965   -2.0310 H         1 <0>         0.4308
@<TRIPOS>BOND
     1    1    2 1
     2    1   25 1
     3    1   26 1
     4    1   27 1
     5    2    3 1
     6    3    4 1
     7    3   28 1
     8    3   29 1
     9    4    5 1
    10    4   30 1
    11    4   31 1
    12    5   10 1
    13    5    6 1
    14    5   44 1
    15    6    7 1
    16    6   32 1
    17    6   33 1
    18    7    8 1
    19    7   34 1
    20    7   35 1
    21    8    9 1
    22    8   11 1
    23    9   10 1
    24    9   36 1
    25    9   37 1
    26   10   38 1
    27   10   39 1
    28   11   16 ar
    29   11   12 ar
    30   12   13 ar
    31   12   40 1
    32   13   14 ar
    33   13   17 1
    34   14   15 ar
    35   15   16 ar
    36   15   41 1
    37   17   18 1
    38   17   42 1
    39   18   22 1
    40   18   19 2
    41   19   20 1
    42   20   21 2
    43   20   43 1
    44   21   22 1
    45   21   23 1
    46   23   24 3
@<TRIPOS>MOLECULE
CHEMBL379896__3
   45    47     0     0     0
SMALL
USER_CHARGES

@<TRIPOS>ATOM
      1 C1          3.3254   -2.2874    3.5970 C.3       1 <0>         0.0289
      2 O1          2.5747   -1.9059    2.4425 O.3       1 <0>        -0.4050
      3 C2          1.3496   -2.6240    2.2824 C.3       1 <0>         0.0240
      4 C3          0.6334   -2.1360    1.0216 C.3       1 <0>        -0.0026
      5 N1          1.4562   -2.4386   -0.1571 N.4       1 <0>        -0.3862
      6 C4          0.8461   -1.8313   -1.3467 C.3       1 <0>        -0.0203
      7 C5          1.7615   -2.0483   -2.5562 C.3       1 <0>         0.0784
      8 N2          2.0344   -3.4884   -2.6819 N.pl3     1 <0>        -0.6117
      9 C6          2.4955   -4.2134   -1.4879 C.3       1 <0>         0.0933
     10 C7          1.5455   -3.8942   -0.3288 C.3       1 <0>        -0.0298
     11 C8          1.8616   -4.1437   -3.8913 C.ar      1 <0>         0.4906
     12 C9          2.0006   -5.5261   -3.9714 C.ar      1 <0>        -0.3029
     13 C10         1.8166   -6.1362   -5.2082 C.ar      1 <0>         0.5080
     14 N3          1.5164   -5.3810   -6.2631 N.ar      1 <0>        -0.4769
     15 C11         1.3934   -4.0745   -6.1464 C.ar      1 <0>         0.4381
     16 N4          1.5548   -3.4601   -4.9923 N.ar      1 <0>        -0.5697
     17 N5          1.9446   -7.5125   -5.3407 N.pl3     1 <0>        -0.5499
     18 C12         1.6566   -8.1201   -6.5480 C.2       1 <0>         0.2073
     19 N6          1.3420   -7.5483   -7.6957 N.2       1 <0>        -0.4980
     20 C13         1.0926   -8.2588   -8.7685 C.2       1 <0>         0.1371
     21 C14         1.1778   -9.6363   -8.6285 C.2       1 <0>        -0.1488
     22 S1          1.6308   -9.7643   -6.9060 S.3       1 <0>         0.2849
     23 C15         0.9657  -10.6690   -9.5977 C.1       1 <0>         0.2742
     24 N7          0.7975  -11.4882  -10.3665 N.1       1 <0>        -0.3477
     25 H1          3.5790   -3.3455    3.5321 H         1 <0>         0.0535
     26 H2          4.2403   -1.6969    3.6469 H         1 <0>         0.1042
     27 H3          2.7297   -2.1108    4.4925 H         1 <0>         0.0600
     28 H4          1.5622   -3.6891    2.1903 H         1 <0>         0.0748
     29 H5          0.7129   -2.4544    3.1507 H         1 <0>         0.1051
     30 H6         -0.3289   -2.6401    0.9322 H         1 <0>         0.1475
     31 H7          0.4749   -1.0596    1.0874 H         1 <0>         0.1476
     32 H8         -0.1220   -2.2951   -1.5357 H         1 <0>         0.1413
     33 H9          0.7110   -0.7626   -1.1803 H         1 <0>         0.1603
     34 H10         1.2671   -1.6890   -3.4588 H         1 <0>         0.1245
     35 H11         2.6975   -1.5096   -2.4085 H         1 <0>         0.1250
     36 H12         2.4864   -5.2856   -1.6842 H         1 <0>         0.1418
     37 H13         3.5056   -3.8934   -1.2323 H         1 <0>         0.1216
     38 H14         1.9257   -4.3456    0.5876 H         1 <0>         0.1570
     39 H15         0.5562   -4.2956   -0.5486 H         1 <0>         0.1426
     40 H16         2.2452   -6.1101   -3.0965 H         1 <0>         0.1862
     41 H17         1.1495   -3.4907   -7.0217 H         1 <0>         0.2548
     42 H18         2.2362   -8.0473   -4.5859 H         1 <0>         0.4556
     43 H19         0.8344   -7.7970   -9.7100 H         1 <0>         0.2027
     44 H20         1.4521   -2.4968   -4.9446 H         1 <0>         0.4427
     45 H21         2.3819   -2.0593   -0.0260 H         1 <0>         0.4360
@<TRIPOS>BOND
     1    1    2 1
     2    1   25 1
     3    1   26 1
     4    1   27 1
     5    2    3 1
     6    3    4 1
     7    3   28 1
     8    3   29 1
     9    4    5 1
    10    4   30 1
    11    4   31 1
    12    5   10 1
    13    5    6 1
    14    5   45 1
    15    6    7 1
    16    6   32 1
    17    6   33 1
    18    7    8 1
    19    7   34 1
    20    7   35 1
    21    8    9 1
    22    8   11 1
    23    9   10 1
    24    9   36 1
    25    9   37 1
    26   10   38 1
    27   10   39 1
    28   11   12 ar
    29   11   16 ar
    30   12   13 ar
    31   12   40 1
    32   13   17 1
    33   13   14 ar
    34   14   15 ar
    35   15   16 ar
    36   15   41 1
    37   16   44 1
    38   17   18 1
    39   17   42 1
    40   18   22 1
    41   18   19 2
    42   19   20 1
    43   20   21 2
    44   20   43 1
    45   21   22 1
    46   21   23 1
    47   23   24 3
@<TRIPOS>MOLECULE
CHEMBL379896__4
   44    46     0     0     0
SMALL
USER_CHARGES

@<TRIPOS>ATOM
      1 C1          1.2516   -1.3481   -4.6560 C.3       1 <0>         0.0294
      2 O1          0.7073   -1.2993   -3.3356 O.3       1 <0>        -0.3779
      3 C2          1.2699   -2.2594   -2.4391 C.3       1 <0>         0.0642
      4 C3          0.6165   -2.1166   -1.0631 C.3       1 <0>         0.0563
      5 N1         -0.8099   -2.4542   -1.1609 N.3       1 <0>        -0.5289
      6 C4         -1.5625   -1.8922   -0.0315 C.3       1 <0>         0.0371
      7 C5         -3.0618   -2.1091   -0.2626 C.3       1 <0>         0.1134
      8 N2         -3.2936   -3.5395   -0.5143 N.pl3     1 <0>        -0.5733
      9 C6         -2.4777   -4.2068   -1.5401 C.3       1 <0>         0.1031
     10 C7         -1.0015   -3.9073   -1.2586 C.3       1 <0>         0.0344
     11 C8         -4.2553   -4.2403    0.1969 C.ar      1 <0>         0.4902
     12 C9         -5.1058   -3.5773    1.0766 C.ar      1 <0>        -0.3094
     13 C10        -6.0544   -4.3258    1.7662 C.ar      1 <0>         0.4975
     14 N3         -6.1139   -5.6402    1.5612 N.ar      1 <0>        -0.4894
     15 C11        -5.2906   -6.2315    0.7197 C.ar      1 <0>         0.4301
     16 N4         -4.3825   -5.5572    0.0442 N.ar      1 <0>        -0.5726
     17 N5         -6.9260   -3.7114    2.6554 N.pl3     1 <0>        -0.5640
     18 C12        -7.9325   -4.4447    3.2546 C.2       1 <0>         0.2364
     19 N6         -8.1551   -5.7436    3.1746 N.2       1 <0>        -0.5060
     20 C13        -9.1581   -6.3060    3.8036 C.2       1 <0>         0.1446
     21 C14        -9.9659   -5.4629    4.5526 C.2       1 <0>        -0.1702
     22 S1         -9.1608   -3.8951    4.2650 S.3       1 <0>         0.2636
     23 C15       -11.1221   -5.7663    5.3413 C.1       1 <0>         0.2843
     24 N7        -12.0392   -6.0070    5.9669 N.1       1 <0>        -0.3647
     25 H1          2.3242   -1.1591   -4.6141 H         1 <0>         0.0426
     26 H2          1.0728   -2.3334   -5.0864 H         1 <0>         0.0402
     27 H3          0.7728   -0.5890   -5.2746 H         1 <0>         0.0888
     28 H4          1.0915   -3.2637   -2.8236 H         1 <0>         0.0477
     29 H5          2.3430   -2.0894   -2.3512 H         1 <0>         0.0586
     30 H6          1.1021   -2.7917   -0.3584 H         1 <0>         0.0589
     31 H7          0.7237   -1.0893   -0.7148 H         1 <0>         0.0927
     32 H8         -1.2609   -2.3898    0.8902 H         1 <0>         0.0468
     33 H9         -1.3573   -0.8246    0.0471 H         1 <0>         0.1088
     34 H10        -3.6174   -1.7982    0.6221 H         1 <0>         0.1043
     35 H11        -3.3870   -1.5280   -1.1256 H         1 <0>         0.1083
     36 H12        -2.6472   -5.2828   -1.4999 H         1 <0>         0.0839
     37 H13        -2.7468   -3.8274   -2.5259 H         1 <0>         0.1126
     38 H14        -0.3893   -4.3012   -2.0700 H         1 <0>         0.1050
     39 H15        -0.7076   -4.3769   -0.3199 H         1 <0>         0.0472
     40 H16        -5.0312   -2.5095    1.2204 H         1 <0>         0.1841
     41 H17        -5.3649   -7.2993    0.5765 H         1 <0>         0.2477
     42 H18        -6.8283   -2.7674    2.8562 H         1 <0>         0.4536
     43 H19        -9.3456   -7.3678    3.7419 H         1 <0>         0.1987
     44 H20        -3.7964   -6.0266   -0.5698 H         1 <0>         0.4414
@<TRIPOS>BOND
     1    1    2 1
     2    1   25 1
     3    1   26 1
     4    1   27 1
     5    2    3 1
     6    3    4 1
     7    3   28 1
     8    3   29 1
     9    4    5 1
    10    4   30 1
    11    4   31 1
    12    5   10 1
    13    5    6 1
    14    6    7 1
    15    6   32 1
    16    6   33 1
    17    7    8 1
    18    7   34 1
    19    7   35 1
    20    8    9 1
    21    8   11 1
    22    9   10 1
    23    9   36 1
    24    9   37 1
    25   10   38 1
    26   10   39 1
    27   11   12 ar
    28   11   16 ar
    29   12   13 ar
    30   12   40 1
    31   13   17 1
    32   13   14 ar
    33   14   15 ar
    34   15   16 ar
    35   15   41 1
    36   16   44 1
    37   17   18 1
    38   17   42 1
    39   18   22 1
    40   18   19 2
    41   19   20 1
    42   20   21 2
    43   20   43 1
    44   21   22 1
    45   21   23 1
    46   23   24 3
@<TRIPOS>MOLECULE
CHEMBL209704
   73    79     0     0     0
SMALL
USER_CHARGES

@<TRIPOS>ATOM
      1 C1          0.0717    1.5339    0.0114 C.ar      1 <0>        -0.1065
      2 C2          1.2683    2.2260    0.0109 C.ar      1 <0>        -0.1229
      3 C3          2.4660    1.5359   -0.0044 C.ar      1 <0>        -0.0948
      4 C4          2.4670    0.1536   -0.0187 C.ar      1 <0>        -0.1025
      5 C5          1.2704   -0.5385   -0.0174 C.ar      1 <0>        -0.0945
      6 C6          0.0728    0.1516   -0.0035 C.ar      1 <0>        -0.1226
      7 C7          3.7727   -0.5987   -0.0364 C.3       1 <0>         0.1023
      8 O1          4.1955   -0.8505    1.3052 O.3       1 <0>        -0.3031
      9 C8          5.3641   -1.5250    1.4675 C.ar      1 <0>         0.1869
     10 C9          6.0901   -1.9300    0.3485 C.ar      1 <0>        -0.2322
     11 C10         7.2651   -2.6084    0.4928 C.ar      1 <0>         0.0126
     12 C11         7.7475   -2.9008    1.7708 C.ar      1 <0>        -0.1753
     13 C12         7.0210   -2.4951    2.9046 C.ar      1 <0>         0.1691
     14 C13         5.8262   -1.7990    2.7397 C.ar      1 <0>        -0.1872
     15 N1          7.7271   -2.9143    4.0038 N.pl3     1 <0>        -0.4887
     16 N2          8.8852   -3.5766    3.5844 N.2       1 <0>        -0.2283
     17 H1          7.4645   -2.7731    4.9268 H         1 <0>         0.4488
     18 C14         8.9407   -3.5938    2.2727 C.2       1 <0>         0.1595
     19 C15        10.0079   -4.1997    1.4522 C.2       1 <0>         0.3740
     20 N3         11.1096   -4.8462    1.9453 N.pl3     1 <0>        -0.5812
     21 H2         11.3249   -4.9851    2.8808 H         1 <0>         0.4305
     22 C16        11.8583   -5.2643    0.8590 C.ar      1 <0>         0.0176
     23 C17        13.0544   -5.9555    0.7264 C.ar      1 <0>        -0.0590
     24 C18        13.5567   -6.2273   -0.5278 C.ar      1 <0>        -0.1589
     25 C19        12.8705   -5.8117   -1.6677 C.ar      1 <0>         0.2011
     26 C20        11.6782   -5.1225   -1.5531 C.ar      1 <0>        -0.1479
     27 C21        11.1589   -4.8415   -0.2850 C.ar      1 <0>         0.1000
     28 N4         10.0407   -4.2049    0.1408 N.2       1 <0>        -0.4696
     29 N5         13.3921   -6.0934   -2.9350 N.pl3     1 <0>        -0.6356
     30 C22        12.6273   -5.7720   -4.1477 C.3       1 <0>         0.1263
     31 C23        13.5031   -4.9198   -5.0716 C.3       1 <0>        -0.1595
     32 C24        14.8215   -5.6508   -5.3353 C.3       1 <0>         0.0277
     33 C25        15.5674   -5.8536   -4.0144 C.3       1 <0>        -0.1593
     34 C26        14.7176   -6.7108   -3.0787 C.3       1 <0>         0.1284
     35 N6         15.6503   -4.8515   -6.2476 N.4       1 <0>        -0.3809
     36 C27        14.9309   -4.6515   -7.5113 C.3       1 <0>        -0.0119
     37 C28        15.7551   -3.7519   -8.4349 C.3       1 <0>        -0.1453
     38 C29        17.1058   -4.4172   -8.7143 C.3       1 <0>        -0.1393
     39 C30        17.8149   -4.6887   -7.3844 C.3       1 <0>        -0.1453
     40 C31        16.9144   -5.5536   -6.4998 C.3       1 <0>        -0.0116
     41 H3         -0.8640    2.0730    0.0278 H         1 <0>         0.1260
     42 H4          1.2675    3.3060    0.0221 H         1 <0>         0.1266
     43 H5          3.4008    2.0767   -0.0054 H         1 <0>         0.1244
     44 H6          1.2713   -1.6184   -0.0289 H         1 <0>         0.1247
     45 H7         -0.8621   -0.3891   -0.0028 H         1 <0>         0.1268
     46 H8          3.6392   -1.5458   -0.5591 H         1 <0>         0.0757
     47 H9          4.5280   -0.0037   -0.5498 H         1 <0>         0.0754
     48 H10         5.7194   -1.7053   -0.6407 H         1 <0>         0.1372
     49 H11         7.8210   -2.9192   -0.3794 H         1 <0>         0.1448
     50 H12         5.2615   -1.4783    3.6027 H         1 <0>         0.1396
     51 H13        13.5915   -6.2798    1.6055 H         1 <0>         0.1303
     52 H14        14.4877   -6.7653   -0.6281 H         1 <0>         0.1329
     53 H15        11.1495   -4.8025   -2.4387 H         1 <0>         0.1316
     54 H16        12.3467   -6.6935   -4.6578 H         1 <0>         0.0738
     55 H17        11.7308   -5.2142   -3.8771 H         1 <0>         0.1055
     56 H18        12.9834   -4.7549   -6.0154 H         1 <0>         0.0979
     57 H19        13.7077   -3.9606   -4.5960 H         1 <0>         0.0920
     58 H20        14.6148   -6.6204   -5.7882 H         1 <0>         0.1369
     59 H21        16.5169   -6.3534   -4.2059 H         1 <0>         0.0979
     60 H22        15.7526   -4.8856   -3.5488 H         1 <0>         0.0916
     61 H23        15.1997   -6.7723   -2.1031 H         1 <0>         0.1028
     62 H24        14.6113   -7.7106   -3.4997 H         1 <0>         0.0730
     63 H25        14.7693   -5.6156   -7.9934 H         1 <0>         0.1280
     64 H26        13.9685   -4.1808   -7.3105 H         1 <0>         0.1318
     65 H27        15.2201   -3.6061   -9.3733 H         1 <0>         0.1119
     66 H28        15.9171   -2.7873   -7.9538 H         1 <0>         0.0869
     67 H29        16.9466   -5.3581   -9.2412 H         1 <0>         0.0816
     68 H30        17.7188   -3.7550   -9.3257 H         1 <0>         0.0938
     69 H31        18.7522   -5.2125   -7.5719 H         1 <0>         0.1117
     70 H32        18.0196   -3.7435   -6.8815 H         1 <0>         0.0868
     71 H33        17.4163   -5.7489   -5.5521 H         1 <0>         0.1312
     72 H34        16.7105   -6.4985   -7.0034 H         1 <0>         0.1280
     73 H35        15.8428   -3.9548   -5.8269 H         1 <0>         0.4199
@<TRIPOS>BOND
     1    1    6 ar
     2    1    2 ar
     3    1   41 1
     4    2    3 ar
     5    2   42 1
     6    3    4 ar
     7    3   43 1
     8    4    5 ar
     9    4    7 1
    10    5    6 ar
    11    5   44 1
    12    6   45 1
    13    7    8 1
    14    7   46 1
    15    7   47 1
    16    8    9 1
    17    9   14 ar
    18    9   10 ar
    19   10   48 1
    20   10   11 ar
    21   11   49 1
    22   11   12 ar
    23   12   13 ar
    24   12   18 1
    25   13   15 1
    26   13   14 ar
    27   14   50 1
    28   15   16 1
    29   15   17 1
    30   16   18 2
    31   18   19 1
    32   19   28 2
    33   19   20 1
    34   20   21 1
    35   20   22 1
    36   22   27 ar
    37   22   23 ar
    38   23   24 ar
    39   23   51 1
    40   24   25 ar
    41   24   52 1
    42   25   26 ar
    43   25   29 1
    44   26   27 ar
    45   26   53 1
    46   27   28 1
    47   29   34 1
    48   29   30 1
    49   30   31 1
    50   30   54 1
    51   30   55 1
    52   31   32 1
    53   31   56 1
    54   31   57 1
    55   32   33 1
    56   32   35 1
    57   32   58 1
    58   33   34 1
    59   33   59 1
    60   33   60 1
    61   34   61 1
    62   34   62 1
    63   35   40 1
    64   35   36 1
    65   35   73 1
    66   36   37 1
    67   36   63 1
    68   36   64 1
    69   37   38 1
    70   37   65 1
    71   37   66 1
    72   38   39 1
    73   38   67 1
    74   38   68 1
    75   39   40 1
    76   39   69 1
    77   39   70 1
    78   40   71 1
    79   40   72 1
@<TRIPOS>MOLECULE
CHEMBL209704__1
   73    79     0     0     0
SMALL
USER_CHARGES

@<TRIPOS>ATOM
      1 C1         -0.0097    1.3907    0.0091 C.ar      1 <0>        -0.1067
      2 C2          1.1790    2.0964    0.0185 C.ar      1 <0>        -0.1227
      3 C3          2.3845    1.4201    0.0034 C.ar      1 <0>        -0.0945
      4 C4          2.4013    0.0380   -0.0205 C.ar      1 <0>        -0.1020
      5 C5          1.2127   -0.6677   -0.0290 C.ar      1 <0>        -0.0947
      6 C6          0.0072    0.0087   -0.0153 C.ar      1 <0>        -0.1229
      7 C7          3.7155   -0.6993   -0.0379 C.3       1 <0>         0.1017
      8 O1          4.1357   -0.9556    1.3036 O.3       1 <0>        -0.3034
      9 C8          5.3113   -1.6179    1.4661 C.ar      1 <0>         0.1877
     10 C9          6.0465   -2.0068    0.3473 C.ar      1 <0>        -0.2322
     11 C10         7.2287   -2.6724    0.4918 C.ar      1 <0>         0.0131
     12 C11         7.7092   -2.9681    1.7697 C.ar      1 <0>        -0.1770
     13 C12         6.9732   -2.5791    2.9033 C.ar      1 <0>         0.1694
     14 C13         5.7712   -1.8955    2.7382 C.ar      1 <0>        -0.1887
     15 N1          7.6793   -2.9985    4.0024 N.pl3     1 <0>        -0.4907
     16 N2          8.8465   -3.6445    3.5833 N.2       1 <0>        -0.2347
     17 H1          7.4110   -2.8674    4.9253 H         1 <0>         0.4478
     18 C14         8.9080   -3.6514    2.2718 C.2       1 <0>         0.1656
     19 C15         9.9854   -4.2394    1.4516 C.2       1 <0>         0.3513
     20 N3         10.0269   -4.2295    0.1412 N.2       1 <0>        -0.4464
     21 C16        11.1526   -4.8549   -0.2840 C.ar      1 <0>         0.0104
     22 C17        11.6809   -5.1211   -1.5520 C.ar      1 <0>        -0.0063
     23 C18        12.8659   -5.7880   -1.6711 C.ar      1 <0>        -0.1867
     24 C19        13.5601   -6.2093   -0.5381 C.ar      1 <0>         0.2312
     25 C20        13.0538   -5.9559    0.7263 C.ar      1 <0>        -0.2002
     26 C21        11.8506   -5.2786    0.8610 C.ar      1 <0>         0.1069
     27 N4         11.0963   -4.8731    1.9453 N.pl3     1 <0>        -0.5868
     28 N5         14.7725   -6.8910   -0.6783 N.pl3     1 <0>        -0.6324
     29 C22        15.5780   -7.2363    0.5010 C.3       1 <0>         0.1256
     30 C23        15.8732   -8.7392    0.4736 C.3       1 <0>        -0.1596
     31 C24        16.5263   -9.1025   -0.8619 C.3       1 <0>         0.0276
     32 C25        15.5643   -8.7784   -2.0070 C.3       1 <0>        -0.1595
     33 C26        15.2626   -7.2812   -2.0074 C.3       1 <0>         0.1266
     34 N6         16.8411  -10.5373   -0.8784 N.4       1 <0>        -0.3809
     35 C27        17.7581  -10.8483    0.2247 C.3       1 <0>        -0.0118
     36 C28        18.0254  -12.3545    0.2616 C.3       1 <0>        -0.1454
     37 C29        18.6549  -12.7884   -1.0654 C.3       1 <0>        -0.1393
     38 C30        17.7235  -12.3922   -2.2146 C.3       1 <0>        -0.1453
     39 C31        17.4674  -10.8846   -2.1597 C.3       1 <0>        -0.0117
     40 H2         -0.9515    1.9190    0.0254 H         1 <0>         0.1258
     41 H3          1.1658    3.1762    0.0372 H         1 <0>         0.1266
     42 H4          3.3131    1.9714    0.0100 H         1 <0>         0.1247
     43 H5          1.2259   -1.7474   -0.0481 H         1 <0>         0.1245
     44 H6         -0.9214   -0.5427   -0.0223 H         1 <0>         0.1265
     45 H7          3.5950   -1.6442   -0.5678 H         1 <0>         0.0760
     46 H8          4.4661   -0.0921   -0.5440 H         1 <0>         0.0762
     47 H9          5.6771   -1.7797   -0.6418 H         1 <0>         0.1379
     48 H10         7.7919   -2.9704   -0.3802 H         1 <0>         0.1455
     49 H11         5.1994   -1.5874    3.6011 H         1 <0>         0.1390
     50 H12        11.1509   -4.7994   -2.4363 H         1 <0>         0.1382
     51 H13        13.2692   -5.9913   -2.6521 H         1 <0>         0.1328
     52 H14        13.5934   -6.2833    1.6027 H         1 <0>         0.1245
     53 H15        16.5148   -6.6794    0.4795 H         1 <0>         0.0752
     54 H16        15.0243   -6.9891    1.4068 H         1 <0>         0.1029
     55 H17        16.5496   -8.9920    1.2901 H         1 <0>         0.0980
     56 H18        14.9423   -9.2950    0.5865 H         1 <0>         0.0918
     57 H19        17.4444   -8.5281   -0.9853 H         1 <0>         0.1373
     58 H20        16.0208   -9.0590   -2.9562 H         1 <0>         0.0995
     59 H21        14.6363   -9.3337   -1.8709 H         1 <0>         0.0922
     60 H22        14.5008   -7.0636   -2.7560 H         1 <0>         0.1060
     61 H23        16.1730   -6.7281   -2.2380 H         1 <0>         0.0748
     62 H24        18.6979  -10.3165    0.0762 H         1 <0>         0.1282
     63 H25        17.3101  -10.5361    1.1680 H         1 <0>         0.1310
     64 H26        18.7078  -12.5832    1.0802 H         1 <0>         0.1119
     65 H27        17.0862  -12.8874    0.4102 H         1 <0>         0.0868
     66 H28        19.6185  -12.2944   -1.1903 H         1 <0>         0.0817
     67 H29        18.7953  -13.8693   -1.0660 H         1 <0>         0.0941
     68 H30        18.1902  -12.6477   -3.1659 H         1 <0>         0.1122
     69 H31        16.7781  -12.9258   -2.1173 H         1 <0>         0.0869
     70 H32        16.8048  -10.5991   -2.9767 H         1 <0>         0.1317
     71 H33        18.4134  -10.3520   -2.2573 H         1 <0>         0.1282
     72 H34        15.9906  -11.0685   -0.7661 H         1 <0>         0.4200
     73 H35        11.3113   -5.0129    2.8808 H         1 <0>         0.4288
@<TRIPOS>BOND
     1    1    6 ar
     2    1    2 ar
     3    1   40 1
     4    2    3 ar
     5    2   41 1
     6    3    4 ar
     7    3   42 1
     8    4    5 ar
     9    4    7 1
    10    5    6 ar
    11    5   43 1
    12    6   44 1
    13    7    8 1
    14    7   45 1
    15    7   46 1
    16    8    9 1
    17    9   14 ar
    18    9   10 ar
    19   10   47 1
    20   10   11 ar
    21   11   48 1
    22   11   12 ar
    23   12   13 ar
    24   12   18 1
    25   13   15 1
    26   13   14 ar
    27   14   49 1
    28   15   16 1
    29   15   17 1
    30   16   18 2
    31   18   19 1
    32   19   27 1
    33   19   20 2
    34   20   21 1
    35   21   26 ar
    36   21   22 ar
    37   22   23 ar
    38   22   50 1
    39   23   24 ar
    40   23   51 1
    41   24   25 ar
    42   24   28 1
    43   25   26 ar
    44   25   52 1
    45   26   27 1
    46   27   73 1
    47   28   33 1
    48   28   29 1
    49   29   30 1
    50   29   53 1
    51   29   54 1
    52   30   31 1
    53   30   55 1
    54   30   56 1
    55   31   32 1
    56   31   34 1
    57   31   57 1
    58   32   33 1
    59   32   58 1
    60   32   59 1
    61   33   60 1
    62   33   61 1
    63   34   39 1
    64   34   35 1
    65   34   72 1
    66   35   36 1
    67   35   62 1
    68   35   63 1
    69   36   37 1
    70   36   64 1
    71   36   65 1
    72   37   38 1
    73   37   66 1
    74   37   67 1
    75   38   39 1
    76   38   68 1
    77   38   69 1
    78   39   70 1
    79   39   71 1
@<TRIPOS>MOLECULE
CHEMBL329350
   37    40     0     0     0
SMALL
USER_CHARGES

@<TRIPOS>ATOM
      1 C1         -0.0173    1.4248    0.0099 C.3       1 <0>         0.0247
      2 O1          0.0021   -0.0041    0.0020 O.3       1 <0>        -0.3148
      3 C2          0.6057   -0.6071   -1.0556 C.ar      1 <0>         0.1410
      4 C3          1.1725    0.1636   -2.0616 C.ar      1 <0>        -0.2063
      5 C4          1.7859   -0.4456   -3.1362 C.ar      1 <0>        -0.0539
      6 C5          1.8367   -1.8362   -3.2114 C.ar      1 <0>        -0.0876
      7 C6          1.2673   -2.6073   -2.1998 C.ar      1 <0>        -0.0576
      8 C7          0.6595   -1.9925   -1.1251 C.ar      1 <0>        -0.1490
      9 C8          2.4956   -2.4948   -4.3667 C.2       1 <0>        -0.1389
     10 C9          1.9672   -2.3519   -5.6675 C.2       1 <0>         0.2011
     11 N1          2.5553   -2.9371   -6.6837 N.2       1 <0>        -0.4559
     12 C10         3.6573   -3.6739   -6.5110 C.2       1 <0>         0.2773
     13 C11         4.4640   -4.3907   -7.4059 C.2       1 <0>        -0.2077
     14 C12         5.4920   -4.9767   -6.6578 C.2       1 <0>         0.1168
     15 N2          5.3373   -4.6506   -5.3980 N.2       1 <0>        -0.3054
     16 N3          4.2048   -3.8393   -5.2665 N.pl3     1 <0>        -0.3069
     17 C13         3.6254   -3.2430   -4.1853 C.2       1 <0>         0.1778
     18 C14         4.2657   -4.5066   -8.8674 C.ar      1 <0>         0.0529
     19 C15         3.0192   -4.8591   -9.3986 C.ar      1 <0>        -0.1529
     20 C16         2.8788   -4.9556  -10.7663 C.ar      1 <0>         0.1012
     21 N4          3.8990   -4.7214  -11.5707 N.ar      1 <0>        -0.4908
     22 C17         5.0906   -4.3866  -11.1115 C.ar      1 <0>         0.1007
     23 C18         5.3178   -4.2612   -9.7579 C.ar      1 <0>        -0.1672
     24 H1          1.0053    1.8021    0.0021 H         1 <0>         0.0580
     25 H2         -0.5445    1.7859   -0.8732 H         1 <0>         0.0585
     26 H3         -0.5275    1.7763    0.9067 H         1 <0>         0.1034
     27 H4          1.1328    1.2413   -2.0028 H         1 <0>         0.1342
     28 H5          2.2260    0.1545   -3.9189 H         1 <0>         0.1298
     29 H6          1.3052   -3.6852   -2.2554 H         1 <0>         0.1327
     30 H7          0.2213   -2.5895   -0.3390 H         1 <0>         0.1369
     31 H8          1.0776   -1.7605   -5.8265 H         1 <0>         0.1841
     32 H9          6.2829   -5.5965   -7.0539 H         1 <0>         0.2038
     33 H10         4.0507   -3.3631   -3.1999 H         1 <0>         0.1834
     34 H11         2.1804   -5.0527   -8.7465 H         1 <0>         0.1312
     35 H12         1.9212   -5.2269  -11.1856 H         1 <0>         0.1554
     36 H13         5.8972   -4.2044  -11.8061 H         1 <0>         0.1561
     37 H14         6.2939   -3.9820   -9.3895 H         1 <0>         0.1340
@<TRIPOS>BOND
     1    1    2 1
     2    1   24 1
     3    1   25 1
     4    1   26 1
     5    2    3 1
     6    3    8 ar
     7    3    4 ar
     8    4    5 ar
     9    4   27 1
    10    5    6 ar
    11    5   28 1
    12    6    7 ar
    13    6    9 1
    14    7    8 ar
    15    7   29 1
    16    8   30 1
    17    9   17 2
    18    9   10 1
    19   10   11 2
    20   10   31 1
    21   11   12 1
    22   12   16 1
    23   12   13 2
    24   13   14 1
    25   13   18 1
    26   14   15 2
    27   14   32 1
    28   15   16 1
    29   16   17 1
    30   17   33 1
    31   18   23 ar
    32   18   19 ar
    33   19   20 ar
    34   19   34 1
    35   20   21 ar
    36   20   35 1
    37   21   22 ar
    38   22   23 ar
    39   22   36 1
    40   23   37 1
@<TRIPOS>MOLECULE
CHEMBL384909
   51    54     0     0     0
SMALL
USER_CHARGES

@<TRIPOS>ATOM
      1 C1         -0.0304    1.3912    0.0617 C.ar      1 <0>        -0.1105
      2 C2          1.1575    2.0981    0.0513 C.ar      1 <0>        -0.1215
      3 C3          2.3635    1.4228    0.0317 C.ar      1 <0>        -0.1002
      4 C4          2.3816    0.0406    0.0229 C.ar      1 <0>        -0.1129
      5 C5          1.1937   -0.6663    0.0342 C.ar      1 <0>        -0.1002
      6 C6         -0.0123    0.0090    0.0524 C.ar      1 <0>        -0.1214
      7 C7          3.6963   -0.6957    0.0006 C.3       1 <0>         0.1615
      8 N1          4.1410   -0.9428    1.3744 N.am      1 <0>        -0.7212
      9 C8          5.3004   -1.5917    1.6010 C.2       1 <0>         0.5606
     10 O1          5.9771   -1.9719    0.6653 O.2       1 <0>        -0.5320
     11 C9          5.7489   -1.8408    2.9864 C.ar      1 <0>        -0.0960
     12 C10         4.9702   -1.4100    4.0626 C.ar      1 <0>        -0.1172
     13 C11         5.3903   -1.6434    5.3553 C.ar      1 <0>        -0.1099
     14 C12         6.5836   -2.3052    5.5912 C.ar      1 <0>         0.0469
     15 C13         7.3664   -2.7388    4.5243 C.ar      1 <0>         0.1852
     16 C14         6.9493   -2.5127    3.2232 C.ar      1 <0>        -0.1150
     17 N2          8.5713   -3.4066    4.7667 N.pl3     1 <0>        -0.7399
     18 C15         9.3947   -3.8627    3.6441 C.3       1 <0>         0.2249
     19 C16        10.6293   -4.5469    4.1720 C.2       1 <0>        -0.2610
     20 C17        10.8330   -5.8531    4.4694 C.2       1 <0>         0.1026
     21 N3         12.0283   -6.1867    4.9218 N.2       1 <0>        -0.5229
     22 C18        12.9736   -5.2838    5.0738 C.2       1 <0>         0.3001
     23 S1         12.2288   -3.8610    4.5704 S.3       1 <0>         0.1085
     24 N4         14.2707   -5.4623    5.5331 N.pl3     1 <0>        -0.6027
     25 C19        14.6774   -6.7075    6.0022 C.ar      1 <0>         0.3682
     26 C20        15.9428   -6.8537    6.5617 C.ar      1 <0>        -0.2095
     27 C21        16.3340   -8.0970    7.0244 C.ar      1 <0>        -0.0437
     28 C22        15.4433   -9.1565    6.9116 C.ar      1 <0>        -0.2071
     29 C23        14.2031   -8.9399    6.3454 C.ar      1 <0>         0.1376
     30 N5         13.8547   -7.7414    5.9170 N.ar      1 <0>        -0.4761
     31 F1          6.9897   -2.5303    6.8599 F         1 <0>        -0.1374
     32 H1         -0.9726    1.9188    0.0815 H         1 <0>         0.1240
     33 H2          1.1434    3.1780    0.0582 H         1 <0>         0.1249
     34 H3          3.2916    1.9750    0.0229 H         1 <0>         0.1246
     35 H4          1.2078   -1.7462    0.0270 H         1 <0>         0.1247
     36 H5         -0.9404   -0.5432    0.0608 H         1 <0>         0.1250
     37 H6          3.5715   -1.6465   -0.5175 H         1 <0>         0.0795
     38 H7          4.4411   -0.0935   -0.5197 H         1 <0>         0.0793
     39 H8          3.6011   -0.6394    2.1209 H         1 <0>         0.4025
     40 H9          4.0390   -0.8935    3.8825 H         1 <0>         0.1320
     41 H10         4.7870   -1.3087    6.1862 H         1 <0>         0.1423
     42 H11         7.5530   -2.8515    2.3943 H         1 <0>         0.1462
     43 H12         8.8618   -3.5676    5.6780 H         1 <0>         0.4071
     44 H13         8.8231   -4.5634    3.0354 H         1 <0>         0.0902
     45 H14         9.6859   -3.0065    3.0356 H         1 <0>         0.0786
     46 H15        10.0525   -6.5887    4.3425 H         1 <0>         0.1742
     47 H16        14.8938   -4.7190    5.5272 H         1 <0>         0.4359
     48 H17        16.6106   -6.0079    6.6334 H         1 <0>         0.1358
     49 H18        17.3104   -8.2407    7.4632 H         1 <0>         0.1393
     50 H19        15.7183  -10.1401    7.2629 H         1 <0>         0.1368
     51 H20        13.5075   -9.7611    6.2554 H         1 <0>         0.1595
@<TRIPOS>BOND
     1    1    6 ar
     2    1    2 ar
     3    1   32 1
     4    2    3 ar
     5    2   33 1
     6    3    4 ar
     7    3   34 1
     8    4    5 ar
     9    4    7 1
    10    5    6 ar
    11    5   35 1
    12    6   36 1
    13    7    8 1
    14    7   37 1
    15    7   38 1
    16    8    9 am
    17    8   39 1
    18    9   10 2
    19    9   11 1
    20   11   16 ar
    21   11   12 ar
    22   12   13 ar
    23   12   40 1
    24   13   14 ar
    25   13   41 1
    26   14   15 ar
    27   14   31 1
    28   15   16 ar
    29   15   17 1
    30   16   42 1
    31   17   18 1
    32   17   43 1
    33   18   19 1
    34   18   44 1
    35   18   45 1
    36   19   23 1
    37   19   20 2
    38   20   21 1
    39   20   46 1
    40   21   22 2
    41   22   23 1
    42   22   24 1
    43   24   25 1
    44   24   47 1
    45   25   30 ar
    46   25   26 ar
    47   26   27 ar
    48   26   48 1
    49   27   28 ar
    50   27   49 1
    51   28   29 ar
    52   28   50 1
    53   29   30 ar
    54   29   51 1
@<TRIPOS>MOLECULE
CHEMBL204426
   46    50     0     0     0
SMALL
USER_CHARGES

@<TRIPOS>ATOM
      1 C1          0.0803    1.6895    0.1161 C.ar      1 <0>        -0.1506
      2 C2          1.3132    2.3256    0.0799 C.ar      1 <0>        -0.0496
      3 C3          2.4807    1.5943    0.0329 C.ar      1 <0>        -0.1660
      4 C4          2.4260    0.2042    0.0217 C.ar      1 <0>         0.2165
      5 C5          1.1743   -0.4356    0.0585 C.ar      1 <0>        -0.1510
      6 C6          0.0029    0.3251    0.1059 C.ar      1 <0>        -0.0492
      7 C7          1.1237   -1.9033    0.0464 C.2       1 <0>         0.3682
      8 C8          2.3311   -2.6031   -0.0016 C.2       1 <0>        -0.2990
      9 C9          3.5524   -1.8890   -0.0367 C.2       1 <0>         0.5786
     10 O1          4.6016   -2.5076   -0.0789 O.2       1 <0>        -0.5604
     11 N1          3.5838   -0.5461   -0.0247 N.am      1 <0>        -0.6375
     12 H1          4.4409   -0.0926   -0.0501 H         1 <0>         0.4184
     13 C10         2.3336   -4.0754   -0.0150 C.2       1 <0>         0.3965
     14 N2          3.4526   -4.8627    0.0555 N.pl3     1 <0>        -0.5811
     15 H2          4.3701   -4.5549    0.1221 H         1 <0>         0.4329
     16 C11         3.0281   -6.1811    0.0142 C.ar      1 <0>        -0.0035
     17 C12         3.6860   -7.4019    0.0485 C.ar      1 <0>        -0.0585
     18 C13         2.9642   -8.5749   -0.0124 C.ar      1 <0>        -0.1731
     19 C14         1.5745   -8.5431   -0.1089 C.ar      1 <0>         0.2158
     20 C15         0.9040   -7.3348   -0.1442 C.ar      1 <0>        -0.1699
     21 C16         1.6265   -6.1390   -0.0825 C.ar      1 <0>         0.1139
     22 N3          1.2629   -4.8326   -0.0907 N.2       1 <0>        -0.5451
     23 N4          0.8537   -9.7408   -0.1709 N.pl3     1 <0>        -0.6342
     24 C17        -0.5987   -9.7395   -0.4074 C.3       1 <0>         0.0881
     25 C18        -0.9032  -10.7134   -1.5514 C.3       1 <0>         0.0456
     26 O2         -0.3083  -11.9807   -1.2616 O.3       1 <0>        -0.3801
     27 C19         1.1178  -11.9496   -1.1659 C.3       1 <0>         0.0451
     28 C20         1.5267  -11.0392   -0.0078 C.3       1 <0>         0.0881
     29 N5         -0.0776   -2.5689    0.0818 N.pl3     1 <0>        -0.8028
     30 H3         -0.8248    2.2772    0.1572 H         1 <0>         0.1350
     31 H4          1.3583    3.4046    0.0882 H         1 <0>         0.1370
     32 H5          3.4351    2.0990    0.0046 H         1 <0>         0.1399
     33 H6         -0.9599   -0.1634    0.1347 H         1 <0>         0.1328
     34 H7          4.7630   -7.4334    0.1225 H         1 <0>         0.1240
     35 H8          3.4789   -9.5240    0.0144 H         1 <0>         0.1301
     36 H9         -0.1732   -7.3143   -0.2186 H         1 <0>         0.1265
     37 H10        -1.1179  -10.0602    0.4958 H         1 <0>         0.0696
     38 H11        -0.9249   -8.7365   -0.6825 H         1 <0>         0.0930
     39 H12        -1.9821  -10.8320   -1.6511 H         1 <0>         0.1042
     40 H13        -0.4916  -10.3223   -2.4818 H         1 <0>         0.0556
     41 H14         1.4928  -12.9575   -0.9883 H         1 <0>         0.1045
     42 H15         1.5367  -11.5629   -2.0949 H         1 <0>         0.0553
     43 H16         2.6073  -10.8965   -0.0184 H         1 <0>         0.0925
     44 H17         1.2251  -11.4930    0.9363 H         1 <0>         0.0698
     45 H18        -0.9038   -2.0730    0.1926 H         1 <0>         0.4004
     46 H19        -0.0996   -3.5349   -0.0040 H         1 <0>         0.4334
@<TRIPOS>BOND
     1    1    6 ar
     2    1    2 ar
     3    1   30 1
     4    2    3 ar
     5    2   31 1
     6    3    4 ar
     7    3   32 1
     8    4   11 1
     9    4    5 ar
    10    5    6 ar
    11    5    7 1
    12    6   33 1
    13    7    8 2
    14    7   29 1
    15    8    9 1
    16    8   13 1
    17    9   10 2
    18    9   11 am
    19   11   12 1
    20   13   22 2
    21   13   14 1
    22   14   15 1
    23   14   16 1
    24   16   21 ar
    25   16   17 ar
    26   17   18 ar
    27   17   34 1
    28   18   19 ar
    29   18   35 1
    30   19   20 ar
    31   19   23 1
    32   20   21 ar
    33   20   36 1
    34   21   22 1
    35   23   28 1
    36   23   24 1
    37   24   25 1
    38   24   37 1
    39   24   38 1
    40   25   26 1
    41   25   39 1
    42   25   40 1
    43   26   27 1
    44   27   28 1
    45   27   41 1
    46   27   42 1
    47   28   43 1
    48   28   44 1
    49   29   45 1
    50   29   46 1
@<TRIPOS>MOLECULE
CHEMBL212054
   59    64     0     0     0
SMALL
USER_CHARGES

@<TRIPOS>ATOM
      1 C1         -0.0169    1.3892   -0.0074 C.ar      1 <0>        -0.1578
      2 C2          1.1625    2.1029   -0.0150 C.ar      1 <0>        -0.0593
      3 C3          2.3775    1.4331   -0.0134 C.ar      1 <0>         0.0187
      4 C4          2.4066    0.0271   -0.0039 C.ar      1 <0>         0.0999
      5 C5          1.2040   -0.6867    0.0033 C.ar      1 <0>        -0.1474
      6 C6          0.0021   -0.0041    0.0020 C.ar      1 <0>         0.2016
      7 N1         -1.2023   -0.7162    0.0097 N.pl3     1 <0>        -0.6355
      8 C7         -1.2065   -2.1812   -0.1022 C.3       1 <0>         0.1262
      9 C8         -2.0073   -2.7627    1.0671 C.3       1 <0>        -0.1595
     10 C9         -3.4007   -2.1301    1.0906 C.3       1 <0>         0.0276
     11 C10        -3.2733   -0.6190    1.2966 C.3       1 <0>        -0.1594
     12 C11        -2.4865   -0.0136    0.1360 C.3       1 <0>         0.1283
     13 N2         -4.1828   -2.7098    2.1907 N.4       1 <0>        -0.3809
     14 C12        -4.2981   -4.1601    1.9959 C.3       1 <0>        -0.0119
     15 C13        -5.0423   -4.7801    3.1805 C.3       1 <0>        -0.1453
     16 C14        -6.4408   -4.1636    3.2769 C.3       1 <0>        -0.1393
     17 C15        -6.3100   -2.6432    3.4051 C.3       1 <0>        -0.1454
     18 C16        -5.5189   -2.1024    2.2122 C.3       1 <0>        -0.0115
     19 N3          3.7092   -0.3472   -0.0045 N.2       1 <0>        -0.4682
     20 C17         4.4746    0.7181   -0.0135 C.2       1 <0>         0.3708
     21 N4          3.6985    1.8460   -0.0193 N.pl3     1 <0>        -0.5805
     22 H1          4.0151    2.7628   -0.0267 H         1 <0>         0.4307
     23 C18         5.9508    0.7031   -0.0169 C.2       1 <0>         0.1591
     24 C19         6.8068   -0.4899   -0.0114 C.ar      1 <0>        -0.1540
     25 C20         6.5526   -1.8627   -0.0019 C.ar      1 <0>         0.0031
     26 C21         7.5934   -2.7464    0.0006 C.ar      1 <0>        -0.1857
     27 C22         8.9078   -2.2911   -0.0063 C.ar      1 <0>         0.1605
     28 C23         9.1818   -0.9401   -0.0157 C.ar      1 <0>        -0.1820
     29 C24         8.1337   -0.0231   -0.0184 C.ar      1 <0>         0.1556
     30 N5          8.0759    1.3476   -0.0274 N.pl3     1 <0>        -0.4854
     31 N6          6.7378    1.7540   -0.0312 N.2       1 <0>        -0.2211
     32 H2          8.8427    1.9416   -0.0333 H         1 <0>         0.4506
     33 F1          9.9246   -3.1807   -0.0032 F         1 <0>        -0.1271
     34 H3         -0.9613    1.9132   -0.0041 H         1 <0>         0.1334
     35 H4          1.1407    3.1826   -0.0226 H         1 <0>         0.1307
     36 H5          1.2144   -1.7666    0.0103 H         1 <0>         0.1323
     37 H6         -1.6701   -2.4743   -1.0442 H         1 <0>         0.0741
     38 H7         -0.1827   -2.5534   -0.0650 H         1 <0>         0.1056
     39 H8         -2.0997   -3.8418    0.9438 H         1 <0>         0.0982
     40 H9         -1.4934   -2.5457    2.0036 H         1 <0>         0.0921
     41 H10        -3.9046   -2.3264    0.1442 H         1 <0>         0.1370
     42 H11        -4.2668   -0.1723    1.3366 H         1 <0>         0.0980
     43 H12        -2.7475   -0.4222    2.2309 H         1 <0>         0.0916
     44 H13        -2.3070    1.0438    0.3303 H         1 <0>         0.1028
     45 H14        -3.0568   -0.1261   -0.7861 H         1 <0>         0.0733
     46 H15        -4.8486   -4.3601    1.0766 H         1 <0>         0.1281
     47 H16        -3.3020   -4.5969    1.9243 H         1 <0>         0.1319
     48 H17        -5.1284   -5.8566    3.0331 H         1 <0>         0.1119
     49 H18        -4.4925   -4.5808    4.1004 H         1 <0>         0.0869
     50 H19        -7.0088   -4.4061    2.3787 H         1 <0>         0.0816
     51 H20        -6.9545   -4.5604    4.1526 H         1 <0>         0.0939
     52 H21        -7.3023   -2.1923    3.4183 H         1 <0>         0.1117
     53 H22        -5.7865   -2.3996    4.3296 H         1 <0>         0.0868
     54 H23        -5.4241   -1.0201    2.3003 H         1 <0>         0.1311
     55 H24        -6.0433   -2.3463    1.2883 H         1 <0>         0.1280
     56 H25         5.5351   -2.2247    0.0038 H         1 <0>         0.1519
     57 H26         7.3945   -3.8079    0.0083 H         1 <0>         0.1459
     58 H27        10.2049   -0.5943   -0.0207 H         1 <0>         0.1457
     59 H28        -3.7168   -2.5261    3.0666 H         1 <0>         0.4200
@<TRIPOS>BOND
     1    1    6 ar
     2    1    2 ar
     3    1   34 1
     4    2    3 ar
     5    2   35 1
     6    3   21 1
     7    3    4 ar
     8    4    5 ar
     9    4   19 1
    10    5    6 ar
    11    5   36 1
    12    6    7 1
    13    7   12 1
    14    7    8 1
    15    8    9 1
    16    8   37 1
    17    8   38 1
    18    9   10 1
    19    9   39 1
    20    9   40 1
    21   10   11 1
    22   10   13 1
    23   10   41 1
    24   11   12 1
    25   11   42 1
    26   11   43 1
    27   12   44 1
    28   12   45 1
    29   13   18 1
    30   13   14 1
    31   13   59 1
    32   14   15 1
    33   14   46 1
    34   14   47 1
    35   15   16 1
    36   15   48 1
    37   15   49 1
    38   16   17 1
    39   16   50 1
    40   16   51 1
    41   17   18 1
    42   17   52 1
    43   17   53 1
    44   18   54 1
    45   18   55 1
    46   19   20 2
    47   20   21 1
    48   20   23 1
    49   21   22 1
    50   23   24 1
    51   23   31 2
    52   24   25 ar
    53   24   29 ar
    54   25   26 ar
    55   25   56 1
    56   26   27 ar
    57   26   57 1
    58   27   28 ar
    59   27   33 1
    60   28   29 ar
    61   28   58 1
    62   29   30 1
    63   30   31 1
    64   30   32 1
@<TRIPOS>MOLECULE
CHEMBL212054__1
   59    64     0     0     0
SMALL
USER_CHARGES

@<TRIPOS>ATOM
      1 C1         -0.0169    1.3893   -0.0074 C.ar      1 <0>        -0.1866
      2 C2          1.1487    2.1003   -0.0150 C.ar      1 <0>        -0.0054
      3 C3          2.3764    1.4301   -0.0132 C.ar      1 <0>         0.0099
      4 C4          2.3989    0.0236   -0.0037 C.ar      1 <0>         0.1085
      5 C5          1.2079   -0.6869    0.0044 C.ar      1 <0>        -0.2011
      6 C6          0.0021   -0.0041    0.0020 C.ar      1 <0>         0.2328
      7 N1         -1.2009   -0.7163    0.0101 N.pl3     1 <0>        -0.6322
      8 C7         -1.2042   -2.1813   -0.1018 C.3       1 <0>         0.1255
      9 C8         -2.0042   -2.7634    1.0677 C.3       1 <0>        -0.1596
     10 C9         -3.3980   -2.1317    1.0917 C.3       1 <0>         0.0275
     11 C10        -3.2715   -0.6205    1.2976 C.3       1 <0>        -0.1595
     12 C11        -2.4855   -0.0146    0.1368 C.3       1 <0>         0.1264
     13 N2         -4.1794   -2.7118    2.1920 N.4       1 <0>        -0.3809
     14 C12        -4.2938   -4.1621    1.9973 C.3       1 <0>        -0.0118
     15 C13        -5.0373   -4.7826    3.1821 C.3       1 <0>        -0.1453
     16 C14        -6.4361   -4.1670    3.2790 C.3       1 <0>        -0.1393
     17 C15        -6.3063   -2.6465    3.4072 C.3       1 <0>        -0.1453
     18 C16        -5.5158   -2.1052    2.2140 C.3       1 <0>        -0.0117
     19 N3          3.7316   -0.3413   -0.0047 N.pl3     1 <0>        -0.5864
     20 C17         4.4682    0.8149   -0.0146 C.2       1 <0>         0.3479
     21 N4          3.6655    1.8515   -0.0195 N.2       1 <0>        -0.4446
     22 C18         5.9428    0.8826   -0.0185 C.2       1 <0>         0.1654
     23 C19         6.7558    2.1052   -0.0290 C.ar      1 <0>        -0.1556
     24 C20         6.4528    3.4681   -0.0375 C.ar      1 <0>         0.0037
     25 C21         7.4614    4.3883   -0.0459 C.ar      1 <0>        -0.1856
     26 C22         8.7911    3.9802   -0.0466 C.ar      1 <0>         0.1612
     27 C23         9.1132    2.6398   -0.0388 C.ar      1 <0>        -0.1836
     28 C24         8.0985    1.6861   -0.0292 C.ar      1 <0>         0.1559
     29 N5          8.0896    0.3142   -0.0195 N.pl3     1 <0>        -0.4876
     30 N6          6.7669   -0.1396   -0.0074 N.2       1 <0>        -0.2275
     31 H1          8.8772   -0.2521   -0.0178 H         1 <0>         0.4496
     32 F1          9.7756    4.9055   -0.0555 F         1 <0>        -0.1271
     33 H2         -0.9622    1.9116   -0.0043 H         1 <0>         0.1334
     34 H3          1.1228    3.1800   -0.0227 H         1 <0>         0.1390
     35 H4          1.2201   -1.7668    0.0120 H         1 <0>         0.1249
     36 H5         -1.6678   -2.4748   -1.0437 H         1 <0>         0.0754
     37 H6         -0.1802   -2.5529   -0.0649 H         1 <0>         0.1029
     38 H7         -2.0960   -3.8425    0.9445 H         1 <0>         0.0981
     39 H8         -1.4902   -2.5461    2.0040 H         1 <0>         0.0919
     40 H9         -3.9021   -2.3283    0.1455 H         1 <0>         0.1373
     41 H10        -4.2652   -0.1744    1.3380 H         1 <0>         0.0997
     42 H11        -2.7455   -0.4233    2.2317 H         1 <0>         0.0923
     43 H12        -2.3066    1.0429    0.3311 H         1 <0>         0.1061
     44 H13        -3.0559   -0.1274   -0.7852 H         1 <0>         0.0751
     45 H14        -4.8445   -4.3625    1.0782 H         1 <0>         0.1282
     46 H15        -3.2975   -4.5984    1.9253 H         1 <0>         0.1310
     47 H16        -5.1228   -5.8592    3.0348 H         1 <0>         0.1119
     48 H17        -4.4873   -4.5830    4.1018 H         1 <0>         0.0869
     49 H18        -7.0042   -4.4099    2.3810 H         1 <0>         0.0817
     50 H19        -6.9493   -4.5641    4.1548 H         1 <0>         0.0942
     51 H20        -7.2988   -2.1963    3.4207 H         1 <0>         0.1122
     52 H21        -5.7826   -2.4026    4.3315 H         1 <0>         0.0870
     53 H22        -5.4217   -1.0229    2.3020 H         1 <0>         0.1317
     54 H23        -6.0404   -2.3495    1.2903 H         1 <0>         0.1282
     55 H24         5.4230    3.7937   -0.0378 H         1 <0>         0.1526
     56 H25         7.2247    5.4421   -0.0525 H         1 <0>         0.1466
     57 H26        10.1480    2.3307   -0.0401 H         1 <0>         0.1451
     58 H27        -3.7132   -2.5278    3.0678 H         1 <0>         0.4201
     59 H28         4.0807   -1.2463    0.0011 H         1 <0>         0.4290
@<TRIPOS>BOND
     1    1    6 ar
     2    1    2 ar
     3    1   33 1
     4    2    3 ar
     5    2   34 1
     6    3   21 1
     7    3    4 ar
     8    4    5 ar
     9    4   19 1
    10    5    6 ar
    11    5   35 1
    12    6    7 1
    13    7   12 1
    14    7    8 1
    15    8    9 1
    16    8   36 1
    17    8   37 1
    18    9   10 1
    19    9   38 1
    20    9   39 1
    21   10   11 1
    22   10   13 1
    23   10   40 1
    24   11   12 1
    25   11   41 1
    26   11   42 1
    27   12   43 1
    28   12   44 1
    29   13   18 1
    30   13   14 1
    31   13   58 1
    32   14   15 1
    33   14   45 1
    34   14   46 1
    35   15   16 1
    36   15   47 1
    37   15   48 1
    38   16   17 1
    39   16   49 1
    40   16   50 1
    41   17   18 1
    42   17   51 1
    43   17   52 1
    44   18   53 1
    45   18   54 1
    46   19   20 1
    47   19   59 1
    48   20   21 2
    49   20   22 1
    50   22   23 1
    51   22   30 2
    52   23   24 ar
    53   23   28 ar
    54   24   25 ar
    55   24   55 1
    56   25   26 ar
    57   25   56 1
    58   26   27 ar
    59   26   32 1
    60   27   28 ar
    61   27   57 1
    62   28   29 1
    63   29   30 1
    64   29   31 1
@<TRIPOS>MOLECULE
CHEMBL327721
   59    63     0     0     0
SMALL
USER_CHARGES

@<TRIPOS>ATOM
      1 C1         -0.0178    1.4648    0.0101 C.3       1 <0>        -0.0461
      2 N1          0.0021   -0.0041    0.0020 N.4       1 <0>        -0.3884
      3 C2         -1.3761   -0.5122    0.0107 C.3       1 <0>        -0.0028
      4 C3         -1.3560   -2.0421   -0.0167 C.3       1 <0>         0.0254
      5 N2         -0.6244   -2.5407    1.1564 N.3       1 <0>        -0.5386
      6 C4          0.7499   -2.0201    1.1745 C.3       1 <0>         0.0204
      7 C5          0.7125   -0.4904    1.1921 C.3       1 <0>        -0.0028
      8 C6         -0.6316   -4.0091    1.1963 C.3       1 <0>         0.0577
      9 C7         -0.0856   -4.4853    2.5439 C.3       1 <0>        -0.1371
     10 C8         -0.0931   -6.0148    2.5855 C.3       1 <0>         0.1123
     11 N3          0.4297   -6.4708    3.8758 N.pl3     1 <0>        -0.4810
     12 C9          1.7284   -6.8178    4.1143 C.2       1 <0>         0.0685
     13 C10         1.8724   -7.1921    5.4088 C.2       1 <0>        -0.1296
     14 C11         0.5463   -7.0680    6.0347 C.ar      1 <0>        -0.0901
     15 C12        -0.3169   -6.6060    5.0263 C.ar      1 <0>         0.0995
     16 C13        -1.6575   -6.3841    5.3241 C.ar      1 <0>        -0.1308
     17 C14        -2.1255   -6.6143    6.5992 C.ar      1 <0>        -0.0933
     18 C15        -1.2718   -7.0670    7.5952 C.ar      1 <0>        -0.1396
     19 C16         0.0569   -7.3016    7.3189 C.ar      1 <0>        -0.0691
     20 C17         3.1231   -7.6404    6.0665 C.ar      1 <0>        -0.0514
     21 C18         3.9159   -8.6297    5.4812 C.ar      1 <0>        -0.0645
     22 C19         5.0832   -9.0150    6.1411 C.ar      1 <0>        -0.0708
     23 C20         5.4111   -8.4027    7.3502 C.ar      1 <0>         0.1048
     24 N4          4.6354   -7.4730    7.8695 N.ar      1 <0>        -0.4734
     25 C21         3.5279   -7.0762    7.2760 C.ar      1 <0>         0.1072
     26 C22         5.9629  -10.0619    5.5648 C.2       1 <0>        -0.0796
     27 C23         7.1257  -10.4544    6.2207 C.2       1 <0>        -0.1540
     28 C24         7.9015  -11.4120    5.6643 C.2       1 <0>        -0.1628
     29 S1          7.0070  -11.8026    4.1702 S.3       1 <0>         0.0563
     30 C25         5.6465  -10.6665    4.3806 C.2       1 <0>        -0.1699
     31 H1          1.0047    1.8421    0.0024 H         1 <0>         0.1246
     32 H2         -0.5450    1.8259   -0.8730 H         1 <0>         0.1248
     33 H3         -0.5280    1.8163    0.9069 H         1 <0>         0.1235
     34 H4         -1.8832   -0.1716    0.9134 H         1 <0>         0.1381
     35 H5         -1.9060   -0.1400   -0.8661 H         1 <0>         0.1368
     36 H6         -2.3783   -2.4196    0.0047 H         1 <0>         0.1245
     37 H7         -0.8610   -2.3831   -0.9260 H         1 <0>         0.0614
     38 H8          1.2641   -2.3816    2.0650 H         1 <0>         0.1244
     39 H9          1.2796   -2.3607    0.2848 H         1 <0>         0.0615
     40 H10         1.7310   -0.1020    1.1912 H         1 <0>         0.1363
     41 H11         0.1947   -0.1499    2.0888 H         1 <0>         0.1381
     42 H12        -1.6519   -4.3710    1.0694 H         1 <0>         0.0926
     43 H13        -0.0057   -4.3975    0.3929 H         1 <0>         0.0505
     44 H14         0.9347   -4.1235    2.6709 H         1 <0>         0.0713
     45 H15        -0.7115   -4.0969    3.3473 H         1 <0>         0.0852
     46 H16        -1.1134   -6.3766    2.4585 H         1 <0>         0.0907
     47 H17         0.5328   -6.4032    1.7821 H         1 <0>         0.0911
     48 H18         2.5215   -6.7974    3.3815 H         1 <0>         0.1686
     49 H19        -2.3306   -6.0315    4.5566 H         1 <0>         0.1170
     50 H20        -3.1670   -6.4404    6.8260 H         1 <0>         0.1273
     51 H21        -1.6527   -7.2428    8.5903 H         1 <0>         0.1267
     52 H22         0.7192   -7.6523    8.0966 H         1 <0>         0.1236
     53 H23         3.6331   -9.0844    4.5434 H         1 <0>         0.1333
     54 H24         6.3128   -8.6946    7.8681 H         1 <0>         0.1578
     55 H25         2.9236   -6.3072    7.7342 H         1 <0>         0.1552
     56 H26         7.4046  -10.0007    7.1602 H         1 <0>         0.1398
     57 H27         8.8262  -11.8329    6.0306 H         1 <0>         0.1909
     58 H28         4.7946  -10.4993    3.7381 H         1 <0>         0.1853
     59 H29         0.4748   -0.3293   -0.8280 H         1 <0>         0.4223
@<TRIPOS>BOND
     1    1    2 1
     2    1   31 1
     3    1   32 1
     4    1   33 1
     5    2    7 1
     6    2    3 1
     7    2   59 1
     8    3    4 1
     9    3   34 1
    10    3   35 1
    11    4    5 1
    12    4   36 1
    13    4   37 1
    14    5    6 1
    15    5    8 1
    16    6    7 1
    17    6   38 1
    18    6   39 1
    19    7   40 1
    20    7   41 1
    21    8    9 1
    22    8   42 1
    23    8   43 1
    24    9   10 1
    25    9   44 1
    26    9   45 1
    27   10   11 1
    28   10   46 1
    29   10   47 1
    30   11   15 1
    31   11   12 1
    32   12   13 2
    33   12   48 1
    34   13   14 1
    35   13   20 1
    36   14   19 ar
    37   14   15 ar
    38   15   16 ar
    39   16   17 ar
    40   16   49 1
    41   17   18 ar
    42   17   50 1
    43   18   19 ar
    44   18   51 1
    45   19   52 1
    46   20   25 ar
    47   20   21 ar
    48   21   22 ar
    49   21   53 1
    50   22   23 ar
    51   22   26 1
    52   23   24 ar
    53   23   54 1
    54   24   25 ar
    55   25   55 1
    56   26   30 2
    57   26   27 1
    58   27   28 2
    59   27   56 1
    60   28   29 1
    61   28   57 1
    62   29   30 1
    63   30   58 1
@<TRIPOS>MOLECULE
CHEMBL327721__1
   59    63     0     0     0
SMALL
USER_CHARGES

@<TRIPOS>ATOM
      1 C1         -0.0178    1.4648    0.0101 C.3       1 <0>         0.0191
      2 N1          0.0021   -0.0041    0.0020 N.3       1 <0>        -0.5434
      3 C2         -1.3607   -0.5489   -0.0764 C.3       1 <0>         0.0236
      4 C3         -1.2932   -2.0762   -0.1426 C.3       1 <0>        -0.0018
      5 N2         -0.6107   -2.5886    1.0529 N.4       1 <0>        -0.3862
      6 C4          0.7570   -2.0553    1.1043 C.3       1 <0>        -0.0067
      7 C5          0.7065   -0.5278    1.1808 C.3       1 <0>         0.0245
      8 C6         -0.5621   -4.0557    0.9977 C.3       1 <0>        -0.0050
      9 C7          0.0360   -4.5955    2.2984 C.3       1 <0>        -0.1725
     10 C8          0.0866   -6.1236    2.2409 C.3       1 <0>         0.1197
     11 N3          0.6594   -6.6404    3.4863 N.pl3     1 <0>        -0.4859
     12 C9          1.9758   -6.9512    3.6712 C.2       1 <0>         0.0625
     13 C10         2.1672   -7.4016    4.9350 C.2       1 <0>        -0.1177
     14 C11         0.8540   -7.3695    5.5986 C.ar      1 <0>        -0.0893
     15 C12        -0.0516   -6.8778    4.6428 C.ar      1 <0>         0.0967
     16 C13        -1.3914   -6.7278    4.9856 C.ar      1 <0>        -0.1361
     17 C14        -1.8174   -7.0571    6.2537 C.ar      1 <0>        -0.0896
     18 C15        -0.9218   -7.5390    7.1980 C.ar      1 <0>        -0.1375
     19 C16         0.4071   -7.7035    6.8760 C.ar      1 <0>        -0.0655
     20 C17         3.4503   -7.8421    5.5328 C.ar      1 <0>        -0.0584
     21 C18         4.2641   -8.7603    4.8662 C.ar      1 <0>        -0.0630
     22 C19         5.4616   -9.1414    5.4721 C.ar      1 <0>        -0.0693
     23 C20         5.7976   -8.5953    6.7104 C.ar      1 <0>         0.1078
     24 N4          5.0014   -7.7315    7.3069 N.ar      1 <0>        -0.4727
     25 C21         3.8650   -7.3410    6.7665 C.ar      1 <0>         0.1084
     26 C22         6.3645  -10.1143    4.8087 C.2       1 <0>        -0.0806
     27 C23         7.5578  -10.5024    5.4103 C.2       1 <0>        -0.1549
     28 C24         8.3541  -11.3915    4.7750 C.2       1 <0>        -0.1614
     29 S1          7.4364  -11.7203    3.2800 S.3       1 <0>         0.0594
     30 C25         6.0403  -10.6538    3.5955 C.2       1 <0>        -0.1706
     31 H1          1.0047    1.8421    0.0024 H         1 <0>         0.0849
     32 H2         -0.5450    1.8259   -0.8730 H         1 <0>         0.0846
     33 H3         -0.5280    1.8163    0.9069 H         1 <0>         0.0401
     34 H4         -1.9242   -0.2477    0.8067 H         1 <0>         0.0608
     35 H5         -1.8539   -0.1676   -0.9705 H         1 <0>         0.1250
     36 H6         -2.3035   -2.4830   -0.1865 H         1 <0>         0.1369
     37 H7         -0.7413   -2.3773   -1.0330 H         1 <0>         0.1388
     38 H8          1.2666   -2.4465    1.9848 H         1 <0>         0.1354
     39 H9          1.2983   -2.3564    0.2075 H         1 <0>         0.1390
     40 H10         1.7215   -0.1310    1.2040 H         1 <0>         0.1244
     41 H11         0.1771   -0.2262    2.0846 H         1 <0>         0.0608
     42 H12        -1.5711   -4.4482    0.8715 H         1 <0>         0.1354
     43 H13         0.0569   -4.3674    0.1563 H         1 <0>         0.1352
     44 H14         1.0451   -4.2031    2.4246 H         1 <0>         0.0953
     45 H15        -0.5829   -4.2839    3.1397 H         1 <0>         0.0946
     46 H16        -0.9224   -6.5160    2.1146 H         1 <0>         0.0973
     47 H17         0.7056   -6.4352    1.3995 H         1 <0>         0.1015
     48 H18         2.7484   -6.8532    2.9230 H         1 <0>         0.1717
     49 H19        -2.0968   -6.3533    4.2586 H         1 <0>         0.1155
     50 H20        -2.8584   -6.9386    6.5157 H         1 <0>         0.1289
     51 H21        -1.2701   -7.7927    8.1883 H         1 <0>         0.1290
     52 H22         1.1019   -8.0772    7.6136 H         1 <0>         0.1259
     53 H23         3.9742   -9.1648    3.9077 H         1 <0>         0.1337
     54 H24         6.7227   -8.8844    7.1870 H         1 <0>         0.1590
     55 H25         3.2445   -6.6270    7.2876 H         1 <0>         0.1549
     56 H26         7.8438  -10.0991    6.3705 H         1 <0>         0.1400
     57 H27         9.3030  -11.7987    5.0914 H         1 <0>         0.1915
     58 H28         5.1665  -10.4792    2.9853 H         1 <0>         0.1850
     59 H29        -1.1152   -2.2999    1.8777 H         1 <0>         0.4213
@<TRIPOS>BOND
     1    1    2 1
     2    1   31 1
     3    1   32 1
     4    1   33 1
     5    2    7 1
     6    2    3 1
     7    3    4 1
     8    3   34 1
     9    3   35 1
    10    4    5 1
    11    4   36 1
    12    4   37 1
    13    5    6 1
    14    5    8 1
    15    5   59 1
    16    6    7 1
    17    6   38 1
    18    6   39 1
    19    7   40 1
    20    7   41 1
    21    8    9 1
    22    8   42 1
    23    8   43 1
    24    9   10 1
    25    9   44 1
    26    9   45 1
    27   10   11 1
    28   10   46 1
    29   10   47 1
    30   11   15 1
    31   11   12 1
    32   12   13 2
    33   12   48 1
    34   13   14 1
    35   13   20 1
    36   14   19 ar
    37   14   15 ar
    38   15   16 ar
    39   16   17 ar
    40   16   49 1
    41   17   18 ar
    42   17   50 1
    43   18   19 ar
    44   18   51 1
    45   19   52 1
    46   20   25 ar
    47   20   21 ar
    48   21   22 ar
    49   21   53 1
    50   22   23 ar
    51   22   26 1
    52   23   24 ar
    53   23   54 1
    54   24   25 ar
    55   25   55 1
    56   26   30 2
    57   26   27 1
    58   27   28 2
    59   27   56 1
    60   28   29 1
    61   28   57 1
    62   29   30 1
    63   30   58 1
@<TRIPOS>MOLECULE
CHEMBL204985
   31    34     0     0     0
SMALL
USER_CHARGES

@<TRIPOS>ATOM
      1 C1         -0.0180    1.3848   -0.0543 C.ar      1 <0>        -0.1681
      2 C2         -1.2343    2.0492   -0.0581 C.ar      1 <0>        -0.0571
      3 C3         -2.3960    1.2915   -0.0312 C.ar      1 <0>        -0.0100
      4 N1         -3.7444    1.5962   -0.0255 N.pl3     1 <0>        -0.5751
      5 C4         -4.4230    0.4069    0.0069 C.2       1 <0>         0.4125
      6 N2         -3.5672   -0.5908    0.0210 N.2       1 <0>        -0.5261
      7 C5         -2.3061   -0.1129   -0.0011 C.ar      1 <0>         0.2651
      8 N3         -1.1109   -0.7014    0.0014 N.ar      1 <0>        -0.4539
      9 H1         -4.1356    2.4836   -0.0411 H         1 <0>         0.4379
     10 C6          0.0020    0.0004   -0.0241 C.ar      1 <0>         0.1219
     11 C7         -5.8881    0.2673    0.0243 C.2       1 <0>        -0.2918
     12 C8         -6.4745   -0.9967   -0.0699 C.2       1 <0>         0.3689
     13 C9         -7.9399   -1.0782   -0.0478 C.ar      1 <0>        -0.1096
     14 C10        -8.6146   -2.2996   -0.1362 C.ar      1 <0>        -0.0991
     15 C11        -9.9933   -2.2932   -0.1080 C.ar      1 <0>         0.0669
     16 N4        -10.6699   -1.1637   -0.0002 N.ar      1 <0>        -0.4323
     17 C12       -10.0814    0.0105    0.0860 C.ar      1 <0>         0.0804
     18 C13        -8.6928    0.1044    0.0660 C.ar      1 <0>         0.1611
     19 N5         -8.0529    1.3227    0.1554 N.am      1 <0>        -0.6287
     20 C14        -6.7121    1.4139    0.1424 C.2       1 <0>         0.5811
     21 O1         -6.1913    2.5121    0.2296 O.2       1 <0>        -0.5538
     22 N6         -5.7042   -2.1278   -0.1803 N.pl3     1 <0>        -0.7935
     23 H2          0.9068    1.9422   -0.0792 H         1 <0>         0.1453
     24 H3         -1.2766    3.1282   -0.0810 H         1 <0>         0.1358
     25 H4          0.9513   -0.5145   -0.0254 H         1 <0>         0.1662
     26 H5         -8.0684   -3.2270   -0.2249 H         1 <0>         0.1484
     27 H6        -10.5295   -3.2282   -0.1757 H         1 <0>         0.1699
     28 H7        -10.6791    0.9059    0.1723 H         1 <0>         0.1736
     29 H8         -4.7385   -2.0653   -0.1145 H         1 <0>         0.4366
     30 H9         -6.1258   -2.9896   -0.3240 H         1 <0>         0.4043
     31 H10        -8.5823    2.1317    0.2332 H         1 <0>         0.4232
@<TRIPOS>BOND
     1    1   10 ar
     2    1   23 1
     3    1    2 ar
     4    2   24 1
     5    2    3 ar
     6    3    7 ar
     7    3    4 1
     8    4    5 1
     9    4    9 1
    10    5   11 1
    11    5    6 2
    12    6    7 1
    13    7    8 ar
    14    8   10 ar
    15   10   25 1
    16   11   20 1
    17   11   12 2
    18   12   13 1
    19   12   22 1
    20   13   18 ar
    21   13   14 ar
    22   14   15 ar
    23   14   26 1
    24   15   16 ar
    25   15   27 1
    26   16   17 ar
    27   17   18 ar
    28   17   28 1
    29   18   19 1
    30   19   20 am
    31   19   31 1
    32   20   21 2
    33   22   29 1
    34   22   30 1
@<TRIPOS>MOLECULE
CHEMBL204985__1
   31    34     0     0     0
SMALL
USER_CHARGES

@<TRIPOS>ATOM
      1 C1         -0.0160    1.3767    0.0394 C.ar      1 <0>        -0.1791
      2 C2         -1.2273    2.0429    0.0213 C.ar      1 <0>        -0.0302
      3 C3         -2.4004    1.2806    0.0341 C.ar      1 <0>         0.0170
      4 N1         -3.7184    1.5931    0.0233 N.2       1 <0>        -0.5264
      5 C4         -4.4303    0.4897    0.0449 C.2       1 <0>         0.4019
      6 N2         -3.5961   -0.5982    0.0710 N.pl3     1 <0>        -0.5688
      7 C5         -2.3003   -0.1231    0.0648 C.ar      1 <0>         0.2398
      8 N3         -1.1143   -0.7085    0.0815 N.ar      1 <0>        -0.4805
      9 H1         -3.8667   -1.5295    0.0908 H         1 <0>         0.4399
     10 C6          0.0019   -0.0081    0.0694 C.ar      1 <0>         0.1316
     11 C7         -5.9016    0.4299    0.0421 C.2       1 <0>        -0.2856
     12 C8         -6.6521    1.6028    0.1422 C.2       1 <0>         0.3656
     13 C9         -8.1152    1.4857    0.1346 C.ar      1 <0>        -0.1093
     14 C10        -8.9478    2.6048    0.2298 C.ar      1 <0>        -0.0998
     15 C11       -10.3132    2.4122    0.2153 C.ar      1 <0>         0.0664
     16 N4        -10.8320    1.2014    0.1145 N.ar      1 <0>        -0.4325
     17 C12       -10.0911    0.1174    0.0224 C.ar      1 <0>         0.0806
     18 C13        -8.7026    0.2120    0.0281 C.ar      1 <0>         0.1611
     19 N5         -7.9047   -0.9087   -0.0676 N.am      1 <0>        -0.6286
     20 C14        -6.5638   -0.8176   -0.0680 C.2       1 <0>         0.5786
     21 O1         -5.9001   -1.8354   -0.1604 O.2       1 <0>        -0.5500
     22 N6         -6.0404    2.8283    0.2451 N.pl3     1 <0>        -0.7973
     23 H2          0.9101    1.9322    0.0258 H         1 <0>         0.1452
     24 H3         -1.2669    3.1219   -0.0018 H         1 <0>         0.1410
     25 H4          0.9504   -0.5246    0.0786 H         1 <0>         0.1666
     26 H5         -8.5311    3.5977    0.3132 H         1 <0>         0.1478
     27 H6        -10.9701    3.2663    0.2880 H         1 <0>         0.1696
     28 H7        -10.5632   -0.8506   -0.0581 H         1 <0>         0.1736
     29 H8         -5.0758    2.8967    0.1697 H         1 <0>         0.4345
     30 H9         -6.5731    3.6253    0.3931 H         1 <0>         0.4037
     31 H10        -8.3206   -1.7820   -0.1403 H         1 <0>         0.4233
@<TRIPOS>BOND
     1    1   10 ar
     2    1   23 1
     3    1    2 ar
     4    2   24 1
     5    2    3 ar
     6    3    7 ar
     7    3    4 1
     8    4    5 2
     9    5   11 1
    10    5    6 1
    11    6    9 1
    12    6    7 1
    13    7    8 ar
    14    8   10 ar
    15   10   25 1
    16   11   20 1
    17   11   12 2
    18   12   13 1
    19   12   22 1
    20   13   18 ar
    21   13   14 ar
    22   14   15 ar
    23   14   26 1
    24   15   16 ar
    25   15   27 1
    26   16   17 ar
    27   17   18 ar
    28   17   28 1
    29   18   19 1
    30   19   20 am
    31   19   31 1
    32   20   21 2
    33   22   29 1
    34   22   30 1
@<TRIPOS>MOLECULE
CHEMBL204985__2
   30    33     0     0     0
SMALL
USER_CHARGES

@<TRIPOS>ATOM
      1 C1         -0.0184    1.3861   -0.0689 C.ar      1 <0>        -0.2196
      2 C2         -1.2348    2.0503   -0.0690 C.ar      1 <0>        -0.0508
      3 C3         -2.3964    1.2924   -0.0405 C.ar      1 <0>        -0.0401
      4 N1         -3.7448    1.5968   -0.0313 N.2       1 <0>        -0.5379
      5 C4         -4.4231    0.4074    0.0009 C.2       1 <0>         0.2728
      6 N2         -3.5672   -0.5901    0.0116 N.2       1 <0>        -0.5878
      7 C5         -2.3061   -0.1120   -0.0127 C.ar      1 <0>         0.2008
      8 N3         -1.1109   -0.7004   -0.0136 N.ar      1 <0>        -0.4769
      9 C6          0.0018    0.0017   -0.0407 C.ar      1 <0>         0.0748
     10 C7         -5.8882    0.2675    0.0214 C.2       1 <0>        -0.1949
     11 C8         -6.4745   -0.9967   -0.0699 C.2       1 <0>         0.2881
     12 C9         -7.9398   -1.0785   -0.0448 C.ar      1 <0>        -0.0891
     13 C10        -8.6144   -2.3001   -0.1301 C.ar      1 <0>        -0.1091
     14 C11        -9.9931   -2.2939   -0.0992 C.ar      1 <0>         0.0504
     15 N4        -10.6697   -1.1644    0.0084 N.ar      1 <0>        -0.4493
     16 C12       -10.0812    0.0100    0.0918 C.ar      1 <0>         0.0663
     17 C13        -8.6928    0.1042    0.0690 C.ar      1 <0>         0.1549
     18 N5         -8.0529    1.3227    0.1553 N.am      1 <0>        -0.6396
     19 C14        -6.7121    1.4141    0.1396 C.2       1 <0>         0.5549
     20 O1         -6.1914    2.5125    0.2242 O.2       1 <0>        -0.4991
     21 N6         -5.7042   -2.1278   -0.1803 N.pl3     1 <0>        -0.8181
     22 H1          0.9062    1.9436   -0.0951 H         1 <0>         0.1125
     23 H2         -1.2773    3.1293   -0.0903 H         1 <0>         0.1070
     24 H3          0.9513   -0.5130   -0.0448 H         1 <0>         0.1341
     25 H4         -8.0682   -3.2275   -0.2187 H         1 <0>         0.1405
     26 H5        -10.5292   -3.2291   -0.1645 H         1 <0>         0.1592
     27 H6        -10.6790    0.9054    0.1782 H         1 <0>         0.1646
     28 H7         -4.7385   -2.0653   -0.1145 H         1 <0>         0.4345
     29 H8         -6.1258   -2.9896   -0.3240 H         1 <0>         0.3860
     30 H9         -8.5823    2.1317    0.2332 H         1 <0>         0.4107
@<TRIPOS>BOND
     1    1    9 ar
     2    1   22 1
     3    1    2 ar
     4    2   23 1
     5    2    3 ar
     6    3    7 ar
     7    3    4 1
     8    4    5 1
     9    5   10 1
    10    5    6 2
    11    6    7 1
    12    7    8 ar
    13    8    9 ar
    14    9   24 1
    15   10   19 1
    16   10   11 2
    17   11   12 1
    18   11   21 1
    19   12   17 ar
    20   12   13 ar
    21   13   14 ar
    22   13   25 1
    23   14   15 ar
    24   14   26 1
    25   15   16 ar
    26   16   17 ar
    27   16   27 1
    28   17   18 1
    29   18   19 am
    30   18   30 1
    31   19   20 2
    32   21   28 1
    33   21   29 1
@<TRIPOS>MOLECULE
CHEMBL489820
   62    66     0     0     0
SMALL
USER_CHARGES

@<TRIPOS>ATOM
      1 C1         -0.0187    1.5258    0.0104 C.3       1 <0>        -0.1892
      2 C2          0.0021   -0.0041    0.0020 C.3       1 <0>        -0.0096
      3 N1         -1.3761   -0.5125    0.0124 N.4       1 <0>        -0.3877
      4 C3         -2.0263   -0.1380    1.2752 C.3       1 <0>        -0.0058
      5 C4         -3.4679   -0.6512    1.2786 C.3       1 <0>         0.0263
      6 N2         -3.4650   -2.1128    1.1238 N.3       1 <0>        -0.5379
      7 C5         -2.7949   -2.5041   -0.1244 C.3       1 <0>         0.0197
      8 C6         -1.3588   -1.9756   -0.1163 C.3       1 <0>        -0.0018
      9 C7         -4.8308   -2.6508    1.1792 C.3       1 <0>         0.0582
     10 C8         -4.7745   -4.1773    1.2658 C.3       1 <0>        -0.1177
     11 C9         -6.1970   -4.7377    1.3235 C.3       1 <0>         0.0616
     12 O1         -6.1444   -6.1634    1.4044 O.3       1 <0>        -0.3162
     13 C10        -7.3323   -6.8226    1.4636 C.ar      1 <0>         0.0935
     14 C11        -8.5259   -6.1048    1.4379 C.ar      1 <0>        -0.1767
     15 C12        -9.7379   -6.7557    1.4965 C.ar      1 <0>        -0.0870
     16 C13        -9.7794   -8.1436    1.5827 C.ar      1 <0>         0.0837
     17 C14        -8.5753   -8.8725    1.6088 C.ar      1 <0>        -0.0724
     18 C15        -7.3504   -8.2000    1.5430 C.ar      1 <0>        -0.1047
     19 C16        -8.9498  -10.2818    1.7023 C.2       1 <0>        -0.1839
     20 C17       -10.3065  -10.3301    1.7269 C.2       1 <0>         0.1250
     21 N3        -10.8137   -9.0524    1.6556 N.pl3     1 <0>        -0.5637
     22 H1        -11.7568   -8.8256    1.6567 H         1 <0>         0.4197
     23 C18       -11.1133  -11.5629    1.8167 C.ar      1 <0>         0.0372
     24 C19       -10.7335  -12.7041    1.1104 C.ar      1 <0>        -0.1014
     25 C20       -11.4885  -13.8553    1.1961 C.ar      1 <0>        -0.0786
     26 C21       -12.6299  -13.8885    1.9837 C.ar      1 <0>        -0.0954
     27 C22       -13.0198  -12.7729    2.6872 C.ar      1 <0>        -0.0784
     28 C23       -12.2692  -11.5973    2.6211 C.ar      1 <0>        -0.1592
     29 C24       -12.9159  -10.5857    3.4726 C.2       1 <0>         0.5595
     30 O2        -12.5126   -9.4494    3.6294 O.2       1 <0>        -0.5255
     31 N4        -14.0161  -11.0967    4.0518 N.am      1 <0>        -0.7199
     32 C25       -14.1786  -12.4866    3.6097 C.3       1 <0>         0.1369
     33 H2          1.0039    1.9031    0.0027 H         1 <0>         0.1070
     34 H3         -0.5459    1.8868   -0.8726 H         1 <0>         0.0796
     35 H4         -0.5289    1.8773    0.9072 H         1 <0>         0.0803
     36 H5          0.5123   -0.3556   -0.8948 H         1 <0>         0.1307
     37 H6          0.5293   -0.3651    0.8851 H         1 <0>         0.1302
     38 H7         -1.4814   -0.5798    2.1094 H         1 <0>         0.1382
     39 H8         -2.0268    0.9473    1.3756 H         1 <0>         0.1367
     40 H9         -3.9460   -0.3864    2.2217 H         1 <0>         0.1242
     41 H10        -4.0169   -0.1991    0.4526 H         1 <0>         0.0608
     42 H11        -2.7820   -3.5911   -0.2049 H         1 <0>         0.1273
     43 H12        -3.3328   -2.0825   -0.9735 H         1 <0>         0.0614
     44 H13        -0.8645   -2.2526   -1.0474 H         1 <0>         0.1358
     45 H14        -0.8173   -2.4080    0.7251 H         1 <0>         0.1382
     46 H15        -5.3416   -2.2556    2.0572 H         1 <0>         0.0928
     47 H16        -5.3735   -2.3577    0.2805 H         1 <0>         0.0505
     48 H17        -4.2636   -4.5725    0.3878 H         1 <0>         0.0745
     49 H18        -4.2318   -4.4704    2.1645 H         1 <0>         0.0881
     50 H19        -6.7078   -4.3425    2.2016 H         1 <0>         0.0632
     51 H20        -6.7397   -4.4445    0.4248 H         1 <0>         0.0597
     52 H21        -8.5004   -5.0271    1.3718 H         1 <0>         0.1278
     53 H22       -10.6567   -6.1885    1.4758 H         1 <0>         0.1244
     54 H23        -6.4243   -8.7554    1.5587 H         1 <0>         0.1311
     55 H24        -8.2758  -11.1246    1.7435 H         1 <0>         0.1518
     56 H25        -9.8464  -12.6863    0.4947 H         1 <0>         0.1425
     57 H26       -11.1895  -14.7356    0.6465 H         1 <0>         0.1428
     58 H27       -13.2151  -14.7942    2.0444 H         1 <0>         0.1382
     59 H28       -14.6089  -10.6227    4.6558 H         1 <0>         0.4286
     60 H29       -15.1214  -12.6130    3.0775 H         1 <0>         0.1035
     61 H30       -14.1432  -13.1507    4.4733 H         1 <0>         0.1020
     62 H31        -1.8876   -0.1131   -0.7602 H         1 <0>         0.4197
@<TRIPOS>BOND
     1    1    2 1
     2    1   33 1
     3    1   34 1
     4    1   35 1
     5    2    3 1
     6    2   36 1
     7    2   37 1
     8    3    8 1
     9    3    4 1
    10    3   62 1
    11    4    5 1
    12    4   38 1
    13    4   39 1
    14    5    6 1
    15    5   40 1
    16    5   41 1
    17    6    7 1
    18    6    9 1
    19    7    8 1
    20    7   42 1
    21    7   43 1
    22    8   44 1
    23    8   45 1
    24    9   10 1
    25    9   46 1
    26    9   47 1
    27   10   11 1
    28   10   48 1
    29   10   49 1
    30   11   12 1
    31   11   50 1
    32   11   51 1
    33   12   13 1
    34   13   18 ar
    35   13   14 ar
    36   14   15 ar
    37   14   52 1
    38   15   16 ar
    39   15   53 1
    40   16   21 1
    41   16   17 ar
    42   17   18 ar
    43   17   19 1
    44   18   54 1
    45   19   20 2
    46   19   55 1
    47   20   21 1
    48   20   23 1
    49   21   22 1
    50   23   28 ar
    51   23   24 ar
    52   24   25 ar
    53   24   56 1
    54   25   26 ar
    55   25   57 1
    56   26   27 ar
    57   26   58 1
    58   27   32 1
    59   27   28 ar
    60   28   29 1
    61   29   30 2
    62   29   31 am
    63   31   32 1
    64   31   59 1
    65   32   60 1
    66   32   61 1
@<TRIPOS>MOLECULE
CHEMBL489820__1
   62    66     0     0     0
SMALL
USER_CHARGES

@<TRIPOS>ATOM
      1 C1         -0.0187    1.5258    0.0104 C.3       1 <0>        -0.1555
      2 C2          0.0021   -0.0041    0.0020 C.3       1 <0>         0.0500
      3 N1          0.7126   -0.4907    1.1921 N.3       1 <0>        -0.5406
      4 C3          2.1356   -0.1267    1.1415 C.3       1 <0>         0.0213
      5 C4          2.8256   -0.5984    2.4234 C.3       1 <0>        -0.0014
      6 N2          2.6792   -2.0544    2.5511 N.4       1 <0>        -0.3852
      7 C5          1.2535   -2.4002    2.6252 C.3       1 <0>        -0.0076
      8 C6          0.5505   -1.9435    1.3450 C.3       1 <0>         0.0257
      9 C7          3.3571   -2.5091    3.7724 C.3       1 <0>        -0.0048
     10 C8          3.3125   -4.0369    3.8417 C.3       1 <0>        -0.1502
     11 C9          4.0187   -4.5105    5.1137 C.3       1 <0>         0.0650
     12 O1          3.9770   -5.9375    5.1784 O.3       1 <0>        -0.3151
     13 C10         4.5646   -6.5240    6.2554 C.ar      1 <0>         0.0872
     14 C11         5.1648   -5.7345    7.2337 C.ar      1 <0>        -0.1776
     15 C12         5.7640   -6.3112    8.3311 C.ar      1 <0>        -0.0851
     16 C13         5.7749   -7.6952    8.4714 C.ar      1 <0>         0.0864
     17 C14         5.1694   -8.4965    7.4849 C.ar      1 <0>        -0.0725
     18 C15         4.5589   -7.8984    6.3774 C.ar      1 <0>        -0.0993
     19 C16         5.3469   -9.8818    7.9144 C.2       1 <0>        -0.1845
     20 C17         6.0234   -9.8478    9.0913 C.2       1 <0>         0.1292
     21 N3          6.2848   -8.5406    9.4340 N.pl3     1 <0>        -0.5627
     22 H1          6.7570   -8.2568   10.2323 H         1 <0>         0.4209
     23 C18         6.4180  -11.0306    9.8811 C.ar      1 <0>         0.0343
     24 C19         5.5481  -12.1138   10.0067 C.ar      1 <0>        -0.1006
     25 C20         5.9190  -13.2183   10.7449 C.ar      1 <0>        -0.0783
     26 C21         7.1577  -13.2621   11.3678 C.ar      1 <0>        -0.0939
     27 C22         8.0284  -12.2035   11.2551 C.ar      1 <0>        -0.0780
     28 C23         7.6782  -11.0763   10.5089 C.ar      1 <0>        -0.1588
     29 C24         8.7962  -10.1203   10.5604 C.2       1 <0>         0.5599
     30 O2          8.8066   -9.0338   10.0147 O.2       1 <0>        -0.5272
     31 N4          9.8040  -10.6192   11.2969 N.am      1 <0>        -0.7191
     32 C25         9.4126  -11.9428   11.7954 C.3       1 <0>         0.1363
     33 H2          1.0039    1.9031    0.0027 H         1 <0>         0.0558
     34 H3         -0.5459    1.8868   -0.8726 H         1 <0>         0.0714
     35 H4         -0.5289    1.8773    0.9072 H         1 <0>         0.0690
     36 H5         -1.0205   -0.3814    0.0098 H         1 <0>         0.0889
     37 H6          0.5123   -0.3556   -0.8948 H         1 <0>         0.0462
     38 H7          2.6028   -0.6042    0.2802 H         1 <0>         0.0606
     39 H8          2.2313    0.9556    1.0542 H         1 <0>         0.1260
     40 H9          3.8842   -0.3420    2.3817 H         1 <0>         0.1363
     41 H10         2.3672   -0.1103    3.2835 H         1 <0>         0.1384
     42 H11         1.1467   -3.4796    2.7330 H         1 <0>         0.1380
     43 H12         0.8032   -1.9029    3.4842 H         1 <0>         0.1389
     44 H13        -0.5103   -2.1866    1.4060 H         1 <0>         0.1239
     45 H14         0.9915   -2.4509    0.4870 H         1 <0>         0.0606
     46 H15         4.3949   -2.1762    3.7573 H         1 <0>         0.1354
     47 H16         2.8541   -2.0910    4.6443 H         1 <0>         0.1349
     48 H17         2.2747   -4.3698    3.8568 H         1 <0>         0.0985
     49 H18         3.8155   -4.4550    2.9698 H         1 <0>         0.0980
     50 H19         5.0565   -4.1776    5.0986 H         1 <0>         0.0700
     51 H20         3.5157   -4.0924    5.9856 H         1 <0>         0.0702
     52 H21         5.1603   -4.6595    7.1302 H         1 <0>         0.1272
     53 H22         6.2261   -5.6888    9.0830 H         1 <0>         0.1260
     54 H23         4.0896   -8.5090    5.6202 H         1 <0>         0.1319
     55 H24         5.0046  -10.7646    7.3951 H         1 <0>         0.1529
     56 H25         4.5818  -12.0873    9.5251 H         1 <0>         0.1427
     57 H26         5.2410  -14.0537   10.8387 H         1 <0>         0.1434
     58 H27         7.4394  -14.1310   11.9441 H         1 <0>         0.1389
     59 H28        10.6473  -10.1745   11.4759 H         1 <0>         0.4289
     60 H29         9.3978  -11.9544   12.8852 H         1 <0>         0.1043
     61 H30        10.1084  -12.6940   11.4215 H         1 <0>         0.1026
     62 H31         3.0933   -2.5055    1.7492 H         1 <0>         0.4217
@<TRIPOS>BOND
     1    1    2 1
     2    1   33 1
     3    1   34 1
     4    1   35 1
     5    2    3 1
     6    2   36 1
     7    2   37 1
     8    3    8 1
     9    3    4 1
    10    4    5 1
    11    4   38 1
    12    4   39 1
    13    5    6 1
    14    5   40 1
    15    5   41 1
    16    6    7 1
    17    6    9 1
    18    6   62 1
    19    7    8 1
    20    7   42 1
    21    7   43 1
    22    8   44 1
    23    8   45 1
    24    9   10 1
    25    9   46 1
    26    9   47 1
    27   10   11 1
    28   10   48 1
    29   10   49 1
    30   11   12 1
    31   11   50 1
    32   11   51 1
    33   12   13 1
    34   13   18 ar
    35   13   14 ar
    36   14   15 ar
    37   14   52 1
    38   15   16 ar
    39   15   53 1
    40   16   21 1
    41   16   17 ar
    42   17   18 ar
    43   17   19 1
    44   18   54 1
    45   19   20 2
    46   19   55 1
    47   20   21 1
    48   20   23 1
    49   21   22 1
    50   23   28 ar
    51   23   24 ar
    52   24   25 ar
    53   24   56 1
    54   25   26 ar
    55   25   57 1
    56   26   27 ar
    57   26   58 1
    58   27   32 1
    59   27   28 ar
    60   28   29 1
    61   29   30 2
    62   29   31 am
    63   31   32 1
    64   31   59 1
    65   32   60 1
    66   32   61 1
@<TRIPOS>MOLECULE
CHEMBL24409
   56    59     0     0     0
SMALL
USER_CHARGES

@<TRIPOS>ATOM
      1 C1          2.6339    1.2642   -0.6135 C.3       1 <0>        -0.0473
      2 N1          2.4176   -0.1880   -0.5646 N.4       1 <0>        -0.3860
      3 C2          0.9994   -0.4784   -0.8069 C.3       1 <0>        -0.0039
      4 C3          0.7829   -1.9929   -0.8376 C.3       1 <0>        -0.1426
      5 C4          1.2055   -2.5908    0.5075 C.3       1 <0>        -0.0980
      6 C5          2.6649   -2.2186    0.7845 C.3       1 <0>        -0.1434
      7 C6          2.8116   -0.6957    0.7550 C.3       1 <0>        -0.0066
      8 C7          1.0667   -4.1136    0.4567 C.3       1 <0>         0.0552
      9 O1          1.3491   -4.6609    1.7462 O.3       1 <0>        -0.2958
     10 C8          1.2699   -6.0111    1.8740 C.ar      1 <0>         0.1621
     11 C9          0.9346   -6.7803    0.7817 C.ar      1 <0>        -0.1788
     12 C10         0.8537   -8.1715    0.9163 C.ar      1 <0>         0.2017
     13 C11         1.1183   -8.7662    2.1749 C.ar      1 <0>        -0.1780
     14 C12         1.4571   -7.9619    3.2695 C.ar      1 <0>        -0.1426
     15 C13         1.5359   -6.6069    3.1146 C.ar      1 <0>         0.1101
     16 O2          1.8708   -5.8270    4.1771 O.3       1 <0>        -0.3029
     17 C14         2.1302   -6.4930    5.4145 C.3       1 <0>         0.0198
     18 C15         1.0292  -10.1748    2.2799 C.ar      1 <0>         0.4653
     19 N2          0.7026  -10.8654    1.1952 N.ar      1 <0>        -0.5756
     20 C16         0.4640  -10.2662    0.0395 C.ar      1 <0>         0.3488
     21 N3          0.5315   -8.9655   -0.1170 N.ar      1 <0>        -0.5406
     22 N4          1.2758  -10.8129    3.4786 N.pl3     1 <0>        -0.6286
     23 C17         1.3174  -12.2109    3.5315 C.ar      1 <0>         0.1443
     24 C18         1.5041  -12.9451    2.3684 C.ar      1 <0>        -0.1263
     25 C19         1.5448  -14.3290    2.4240 C.ar      1 <0>         0.1373
     26 C20         1.3990  -14.9794    3.6420 C.ar      1 <0>        -0.0592
     27 C21         1.2130  -14.2477    4.8008 C.ar      1 <0>        -0.1053
     28 C22         1.1775  -12.8660    4.7502 C.ar      1 <0>         0.0663
     29 F1          1.0018  -12.1528    5.8841 F         1 <0>        -0.1307
     30 Cl1         1.4496  -16.7133    3.7104 Cl        1 <0>        -0.0373
     31 O3          1.7271  -15.0501    1.2858 O.3       1 <0>        -0.4777
     32 H1          3.6880    1.4806   -0.4403 H         1 <0>         0.1242
     33 H2          2.3416    1.6422   -1.5932 H         1 <0>         0.1242
     34 H3          2.0324    1.7472    0.1566 H         1 <0>         0.1219
     35 H4          0.3982   -0.0420   -0.0093 H         1 <0>         0.1306
     36 H5          0.6993   -0.0496   -1.7630 H         1 <0>         0.1344
     37 H6         -0.2710   -2.2065   -1.0158 H         1 <0>         0.1175
     38 H7          1.3835   -2.4304   -1.6351 H         1 <0>         0.0935
     39 H8          0.5711   -2.1920    1.2990 H         1 <0>         0.1030
     40 H9          2.9562   -2.5934    1.7657 H         1 <0>         0.1210
     41 H10         3.3046   -2.6607    0.0206 H         1 <0>         0.0893
     42 H11         3.8495   -0.4272    0.9521 H         1 <0>         0.1325
     43 H12         2.1718   -0.2547    1.5194 H         1 <0>         0.1299
     44 H13         0.0497   -4.3762    0.1654 H         1 <0>         0.0787
     45 H14         1.7693   -4.5185   -0.2716 H         1 <0>         0.0742
     46 H15         0.7351   -6.3135   -0.1716 H         1 <0>         0.1541
     47 H16         1.6596   -8.4108    4.2306 H         1 <0>         0.1416
     48 H17         1.2418   -7.0437    5.7239 H         1 <0>         0.0602
     49 H18         2.9613   -7.1865    5.2866 H         1 <0>         0.0596
     50 H19         2.3852   -5.7568    6.1768 H         1 <0>         0.1092
     51 H20         0.2020  -10.8753   -0.8130 H         1 <0>         0.2039
     52 H21         1.4202  -10.2926    4.2843 H         1 <0>         0.4252
     53 H22         1.6170  -12.4383    1.4214 H         1 <0>         0.1886
     54 H23         1.0998  -14.7557    5.7471 H         1 <0>         0.1571
     55 H24         2.6544  -15.2281    1.0772 H         1 <0>         0.3975
     56 H25         2.9766   -0.6344   -1.2762 H         1 <0>         0.4247
@<TRIPOS>BOND
     1    1    2 1
     2    1   32 1
     3    1   33 1
     4    1   34 1
     5    2    7 1
     6    2    3 1
     7    2   56 1
     8    3    4 1
     9    3   35 1
    10    3   36 1
    11    4    5 1
    12    4   37 1
    13    4   38 1
    14    5    6 1
    15    5    8 1
    16    5   39 1
    17    6    7 1
    18    6   40 1
    19    6   41 1
    20    7   42 1
    21    7   43 1
    22    8    9 1
    23    8   44 1
    24    8   45 1
    25    9   10 1
    26   10   15 ar
    27   10   11 ar
    28   11   12 ar
    29   11   46 1
    30   12   21 ar
    31   12   13 ar
    32   13   14 ar
    33   13   18 ar
    34   14   15 ar
    35   14   47 1
    36   15   16 1
    37   16   17 1
    38   17   48 1
    39   17   49 1
    40   17   50 1
    41   18   19 ar
    42   18   22 1
    43   19   20 ar
    44   20   21 ar
    45   20   51 1
    46   22   23 1
    47   22   52 1
    48   23   28 ar
    49   23   24 ar
    50   24   25 ar
    51   24   53 1
    52   25   26 ar
    53   25   31 1
    54   26   27 ar
    55   26   30 1
    56   27   28 ar
    57   27   54 1
    58   28   29 1
    59   31   55 1
@<TRIPOS>MOLECULE
CHEMBL498088
   66    69     0     0     0
SMALL
USER_CHARGES

@<TRIPOS>ATOM
      1 C1         -5.7541   -0.6408   -1.8019 C.3       1 <0>        -0.1759
      2 C2         -4.5360   -0.0367   -2.4519 C.2       1 <0>         0.5204
      3 O1         -3.8233    0.7164   -1.8225 O.2       1 <0>        -0.5212
      4 N1         -4.2386   -0.3331   -3.7326 N.am      1 <0>        -0.5522
      5 C3         -5.1485   -1.1672   -4.5216 C.3       1 <0>         0.0877
      6 C4         -6.1212   -0.2869   -5.2632 C.2       1 <0>         0.4905
      7 O2         -6.0604    0.9185   -5.1444 O.2       1 <0>        -0.5190
      8 N2         -7.0587   -0.8392   -6.0586 N.am      1 <0>        -0.6217
      9 C5         -8.0043    0.0166   -6.7795 C.3       1 <0>         0.0842
     10 C6         -7.1322   -2.2953   -6.2022 C.3       1 <0>         0.0715
     11 C7         -3.0597    0.1562   -4.3091 C.ar      1 <0>         0.0995
     12 C8         -2.0507   -0.7235   -4.6791 C.ar      1 <0>        -0.0818
     13 C9         -0.8886   -0.2415   -5.2468 C.ar      1 <0>        -0.1586
     14 C10        -0.7284    1.1238   -5.4485 C.ar      1 <0>         0.1952
     15 C11        -1.7382    2.0035   -5.0787 C.ar      1 <0>        -0.1623
     16 C12        -2.9022    1.5205   -4.5158 C.ar      1 <0>        -0.0446
     17 N3          0.4491    1.6124   -6.0233 N.pl3     1 <0>        -0.6665
     18 C13         0.6768    2.9617   -6.0755 C.2       1 <0>         0.3350
     19 C14         0.8712    3.5877   -7.3033 C.2       1 <0>        -0.2263
     20 C15         1.2637    4.9912   -7.5343 C.ar      1 <0>        -0.0475
     21 C16         1.5449    6.0608   -6.6855 C.ar      1 <0>        -0.0887
     22 C17         1.8890    7.2744   -7.2074 C.ar      1 <0>        -0.0780
     23 C18         1.9610    7.4487   -8.5949 C.ar      1 <0>        -0.0988
     24 C19         1.6812    6.3835   -9.4536 C.ar      1 <0>        -0.0684
     25 C20         1.3318    5.1510   -8.9287 C.ar      1 <0>         0.1286
     26 N4          1.0060    3.9374   -9.5221 N.am      1 <0>        -0.6526
     27 C21         0.7385    3.0057   -8.5918 C.2       1 <0>         0.5651
     28 O3          0.4293    1.8486   -8.8174 O.2       1 <0>        -0.5085
     29 C22         2.3332    8.7620   -9.1514 C.2       1 <0>         0.5098
     30 O4          2.3964    8.9160  -10.3551 O.2       1 <0>        -0.5019
     31 O5          2.6033    9.7919   -8.3252 O.3       1 <0>        -0.3474
     32 C23         2.9572   11.0357   -8.9332 C.3       1 <0>         0.0340
     33 C24         0.7162    3.7513   -4.8310 C.ar      1 <0>        -0.0979
     34 C25        -0.1035    4.8742   -4.6855 C.ar      1 <0>        -0.0826
     35 C26        -0.0611    5.6078   -3.5186 C.ar      1 <0>        -0.1212
     36 C27         0.7901    5.2348   -2.4931 C.ar      1 <0>        -0.0930
     37 C28         1.6046    4.1243   -2.6299 C.ar      1 <0>        -0.1196
     38 C29         1.5691    3.3774   -3.7887 C.ar      1 <0>        -0.0762
     39 H1         -6.6088    0.0197   -1.9473 H         1 <0>         0.0969
     40 H2         -5.9634   -1.6106   -2.2532 H         1 <0>         0.0808
     41 H3         -5.5709   -0.7685   -0.7350 H         1 <0>         0.0989
     42 H4         -4.5738   -1.7562   -5.2364 H         1 <0>         0.1131
     43 H5         -5.6967   -1.8356   -3.8576 H         1 <0>         0.1190
     44 H6         -7.5904    0.2746   -7.7543 H         1 <0>         0.0560
     45 H7         -8.9461   -0.5153   -6.9139 H         1 <0>         0.0719
     46 H8         -8.1798    0.9272   -6.2067 H         1 <0>         0.0773
     47 H9         -6.3547   -2.7599   -5.5957 H         1 <0>         0.0779
     48 H10        -8.1097   -2.6443   -5.8695 H         1 <0>         0.0678
     49 H11        -6.9867   -2.5650   -7.2482 H         1 <0>         0.0670
     50 H12        -2.1752   -1.7848   -4.5223 H         1 <0>         0.1288
     51 H13        -0.1037   -0.9255   -5.5339 H         1 <0>         0.1308
     52 H14        -1.6138    3.0649   -5.2351 H         1 <0>         0.1267
     53 H15        -3.6889    2.2039   -4.2323 H         1 <0>         0.1288
     54 H16         1.1045    0.9956   -6.3851 H         1 <0>         0.4211
     55 H17         1.4902    5.9294   -5.6149 H         1 <0>         0.1432
     56 H18         2.1059    8.1022   -6.5485 H         1 <0>         0.1448
     57 H19         1.7367    6.5209  -10.5234 H         1 <0>         0.1433
     58 H20         0.9795    3.7826  -10.4793 H         1 <0>         0.4196
     59 H21         2.1387   11.3760   -9.5675 H         1 <0>         0.0625
     60 H22         3.1487   11.7776   -8.1580 H         1 <0>         0.1052
     61 H23         3.8542   10.9023   -9.5380 H         1 <0>         0.0624
     62 H24        -0.7680    5.1666   -5.4850 H         1 <0>         0.1304
     63 H25        -0.6936    6.4758   -3.4048 H         1 <0>         0.1323
     64 H26         0.8192    5.8134   -1.5817 H         1 <0>         0.1288
     65 H27         2.2664    3.8392   -1.8254 H         1 <0>         0.1298
     66 H28         2.2018    2.5082   -3.8922 H         1 <0>         0.1257
@<TRIPOS>BOND
     1    1    2 1
     2    1   39 1
     3    1   40 1
     4    1   41 1
     5    2    3 2
     6    2    4 am
     7    4    5 1
     8    4   11 1
     9    5    6 1
    10    5   42 1
    11    5   43 1
    12    6    7 2
    13    6    8 am
    14    8    9 1
    15    8   10 1
    16    9   44 1
    17    9   45 1
    18    9   46 1
    19   10   47 1
    20   10   48 1
    21   10   49 1
    22   11   16 ar
    23   11   12 ar
    24   12   13 ar
    25   12   50 1
    26   13   14 ar
    27   13   51 1
    28   14   15 ar
    29   14   17 1
    30   15   16 ar
    31   15   52 1
    32   16   53 1
    33   17   18 1
    34   17   54 1
    35   18   19 2
    36   18   33 1
    37   19   27 1
    38   19   20 1
    39   20   25 ar
    40   20   21 ar
    41   21   22 ar
    42   21   55 1
    43   22   23 ar
    44   22   56 1
    45   23   24 ar
    46   23   29 1
    47   24   25 ar
    48   24   57 1
    49   25   26 1
    50   26   27 am
    51   26   58 1
    52   27   28 2
    53   29   30 2
    54   29   31 1
    55   31   32 1
    56   32   59 1
    57   32   60 1
    58   32   61 1
    59   33   38 ar
    60   33   34 ar
    61   34   35 ar
    62   34   62 1
    63   35   36 ar
    64   35   63 1
    65   36   37 ar
    66   36   64 1
    67   37   38 ar
    68   37   65 1
    69   38   66 1
@<TRIPOS>MOLECULE
CHEMBL498088__1
   66    69     0     0     0
SMALL
USER_CHARGES

@<TRIPOS>ATOM
      1 C1         -5.5418   -0.4922   -2.6852 C.3       1 <0>        -0.1759
      2 C2         -4.2967    0.1930   -3.1864 C.2       1 <0>         0.5203
      3 O1         -3.6430    0.8873   -2.4368 O.2       1 <0>        -0.5196
      4 N1         -3.9095    0.0344   -4.4675 N.am      1 <0>        -0.5537
      5 C3         -4.7597   -0.7054   -5.4035 C.3       1 <0>         0.0883
      6 C4         -5.6824    0.2540   -6.1100 C.2       1 <0>         0.4899
      7 O2         -5.6345    1.4391   -5.8567 O.2       1 <0>        -0.5185
      8 N2         -6.5608   -0.2049   -7.0234 N.am      1 <0>        -0.6216
      9 C5         -7.4577    0.7279   -7.7102 C.3       1 <0>         0.0841
     10 C6         -6.6187   -1.6364   -7.3294 C.3       1 <0>         0.0716
     11 C7         -2.6942    0.5768   -4.9041 C.ar      1 <0>         0.1027
     12 C8         -1.6591   -0.2631   -5.2939 C.ar      1 <0>        -0.0823
     13 C9         -0.4613    0.2712   -5.7238 C.ar      1 <0>        -0.1607
     14 C10        -0.2912    1.6494   -5.7669 C.ar      1 <0>         0.1881
     15 C11        -1.3269    2.4894   -5.3773 C.ar      1 <0>        -0.1576
     16 C12        -2.5264    1.9547   -4.9525 C.ar      1 <0>        -0.0441
     17 N3          0.9225    2.1910   -6.2019 N.pl3     1 <0>        -0.6776
     18 C13         1.1493    3.5371   -6.0943 C.2       1 <0>         0.3393
     19 C14         1.4334    4.2881   -7.2312 C.2       1 <0>        -0.2285
     20 C15         1.4052    3.8266   -8.6324 C.ar      1 <0>        -0.0508
     21 C16         1.1140    2.6031   -9.2338 C.ar      1 <0>        -0.0840
     22 C17         1.1755    2.4780  -10.5918 C.ar      1 <0>        -0.0784
     23 C18         1.5303    3.5766  -11.3842 C.ar      1 <0>        -0.0990
     24 C19         1.8239    4.8065  -10.7914 C.ar      1 <0>        -0.0681
     25 C20         1.7628    4.9380   -9.4146 C.ar      1 <0>         0.1307
     26 N4          1.9962    6.0117   -8.5639 N.am      1 <0>        -0.6529
     27 C21         1.8039    5.6581   -7.2821 C.2       1 <0>         0.5668
     28 O3          1.9299    6.3935   -6.3184 O.2       1 <0>        -0.4977
     29 C22         1.5947    3.4341  -12.8499 C.2       1 <0>         0.5096
     30 O4          1.9023    4.3860  -13.5399 O.2       1 <0>        -0.5011
     31 O5          1.3123    2.2484  -13.4248 O.3       1 <0>        -0.3480
     32 C23         1.3946    2.1823  -14.8499 C.3       1 <0>         0.0340
     33 C24         1.0927    4.1909   -4.7741 C.ar      1 <0>        -0.0994
     34 C25         1.8287    3.6760   -3.7031 C.ar      1 <0>        -0.0764
     35 C26         1.7706    4.2929   -2.4712 C.ar      1 <0>        -0.1275
     36 C27         0.9862    5.4192   -2.2937 C.ar      1 <0>        -0.0913
     37 C28         0.2547    5.9349   -3.3494 C.ar      1 <0>        -0.1227
     38 C29         0.3072    5.3322   -4.5886 C.ar      1 <0>        -0.0453
     39 H1         -6.3993    0.1665   -2.8225 H         1 <0>         0.0969
     40 H2         -5.6990   -1.4146   -3.2443 H         1 <0>         0.0812
     41 H3         -5.4277   -0.7242   -1.6263 H         1 <0>         0.0991
     42 H4         -4.1349   -1.2153   -6.1368 H         1 <0>         0.1132
     43 H5         -5.3498   -1.4400   -4.8555 H         1 <0>         0.1188
     44 H6         -6.9788    1.0890   -8.6203 H         1 <0>         0.0562
     45 H7         -8.3861    0.2173   -7.9663 H         1 <0>         0.0718
     46 H8         -7.6757    1.5713   -7.0551 H         1 <0>         0.0773
     47 H9         -5.8830   -2.1671   -6.7250 H         1 <0>         0.0779
     48 H10        -7.6154   -2.0159   -7.1048 H         1 <0>         0.0677
     49 H11        -6.4005   -1.7911   -8.3861 H         1 <0>         0.0671
     50 H12        -1.7914   -1.3345   -5.2604 H         1 <0>         0.1293
     51 H13         0.3438   -0.3821   -6.0262 H         1 <0>         0.1316
     52 H14        -1.1949    3.5608   -5.4104 H         1 <0>         0.1276
     53 H15        -3.3331    2.6077   -4.6538 H         1 <0>         0.1295
     54 H16         1.6037    1.6131   -6.5800 H         1 <0>         0.4183
     55 H17         0.8401    1.7539   -8.6252 H         1 <0>         0.1331
     56 H18         0.9503    1.5292  -11.0561 H         1 <0>         0.1445
     57 H19         2.0979    5.6521  -11.4049 H         1 <0>         0.1438
     58 H20         2.2584    6.8986   -8.8565 H         1 <0>         0.4202
     59 H21         2.4082    2.4276  -15.1671 H         1 <0>         0.0627
     60 H22         1.1438    1.1749  -15.1820 H         1 <0>         0.1052
     61 H23         0.6947    2.8940  -15.2876 H         1 <0>         0.0626
     62 H24         2.4410    2.7969   -3.8400 H         1 <0>         0.1219
     63 H25         2.3384    3.8960   -1.6427 H         1 <0>         0.1267
     64 H26         0.9444    5.8979   -1.3265 H         1 <0>         0.1255
     65 H27        -0.3553    6.8141   -3.2034 H         1 <0>         0.1270
     66 H28        -0.2604    5.7385   -5.4127 H         1 <0>         0.1210
@<TRIPOS>BOND
     1    1    2 1
     2    1   39 1
     3    1   40 1
     4    1   41 1
     5    2    3 2
     6    2    4 am
     7    4    5 1
     8    4   11 1
     9    5    6 1
    10    5   42 1
    11    5   43 1
    12    6    7 2
    13    6    8 am
    14    8    9 1
    15    8   10 1
    16    9   44 1
    17    9   45 1
    18    9   46 1
    19   10   47 1
    20   10   48 1
    21   10   49 1
    22   11   16 ar
    23   11   12 ar
    24   12   13 ar
    25   12   50 1
    26   13   14 ar
    27   13   51 1
    28   14   15 ar
    29   14   17 1
    30   15   16 ar
    31   15   52 1
    32   16   53 1
    33   17   18 1
    34   17   54 1
    35   18   19 2
    36   18   33 1
    37   19   27 1
    38   19   20 1
    39   20   25 ar
    40   20   21 ar
    41   21   22 ar
    42   21   55 1
    43   22   23 ar
    44   22   56 1
    45   23   24 ar
    46   23   29 1
    47   24   25 ar
    48   24   57 1
    49   25   26 1
    50   26   27 am
    51   26   58 1
    52   27   28 2
    53   29   30 2
    54   29   31 1
    55   31   32 1
    56   32   59 1
    57   32   60 1
    58   32   61 1
    59   33   38 ar
    60   33   34 ar
    61   34   35 ar
    62   34   62 1
    63   35   36 ar
    64   35   63 1
    65   36   37 ar
    66   36   64 1
    67   37   38 ar
    68   37   65 1
    69   38   66 1
@<TRIPOS>MOLECULE
CHEMBL1090360
   72    78     0     0     0
SMALL
USER_CHARGES

@<TRIPOS>ATOM
      1 C1          7.2293   -4.9806   -3.5386 C.ar      1 <0>        -0.1173
      2 C2          5.9325   -4.9809   -3.0597 C.ar      1 <0>        -0.1187
      3 C3          5.4917   -3.9450   -2.2575 C.ar      1 <0>        -0.1038
      4 C4          6.3478   -2.9090   -1.9339 C.ar      1 <0>        -0.0719
      5 C5          7.6448   -2.9091   -2.4121 C.ar      1 <0>        -0.1041
      6 C6          8.0852   -3.9443   -3.2154 C.ar      1 <0>        -0.1186
      7 C7          5.8669   -1.7792   -1.0602 C.3       1 <0>        -0.0992
      8 C8          6.1315   -2.1142    0.3851 C.2       1 <0>         0.5095
      9 O1          6.6587   -3.1668    0.6769 O.2       1 <0>        -0.4988
     10 N1          5.7824   -1.2441    1.3534 N.am      1 <0>        -0.6768
     11 C9          5.9374   -1.5956    2.6990 C.ar      1 <0>         0.1355
     12 C10         5.0082   -1.1687    3.6404 C.ar      1 <0>        -0.1296
     13 C11         5.1574   -1.5134    4.9703 C.ar      1 <0>        -0.1108
     14 C12         6.2302   -2.2839    5.3720 C.ar      1 <0>        -0.0702
     15 C13         7.1678   -2.7169    4.4346 C.ar      1 <0>         0.0050
     16 C14         7.0146   -2.3743    3.0924 C.ar      1 <0>        -0.0796
     17 C15         8.3202   -3.5435    4.8636 C.2       1 <0>         0.1584
     18 C16         8.9972   -3.4383    6.0659 C.2       1 <0>         0.0062
     19 N2         10.0089   -4.4067    6.0520 N.pl3     1 <0>        -0.4154
     20 C17        11.0154   -4.8458    6.8815 C.2       1 <0>         0.0211
     21 C18        11.8211   -5.8405    6.5101 C.2       1 <0>        -0.1691
     22 S1         11.1850   -6.2440    4.8907 S.3       1 <0>         0.1520
     23 C19         9.8802   -5.0361    4.8432 C.2       1 <0>         0.1938
     24 N3          8.8908   -4.5322    4.1583 N.2       1 <0>        -0.4261
     25 C20         8.7093   -2.4897    7.1515 C.ar      1 <0>         0.2964
     26 C21         9.0797   -2.7839    8.4734 C.ar      1 <0>        -0.2809
     27 C22         8.7879   -1.8619    9.4577 C.ar      1 <0>         0.1984
     28 N4          8.1717   -0.7347    9.1302 N.ar      1 <0>        -0.5496
     29 C23         7.8322   -0.4801    7.8747 C.ar      1 <0>         0.5702
     30 N5          8.0960   -1.3310    6.8961 N.ar      1 <0>        -0.5379
     31 N6          7.1895    0.7109    7.5780 N.pl3     1 <0>        -0.6338
     32 C24         7.0047    1.6728    8.5756 C.ar      1 <0>         0.2134
     33 C25         7.9553    1.8274    9.5776 C.ar      1 <0>        -0.1693
     34 C26         7.7732    2.7772   10.5639 C.ar      1 <0>        -0.0511
     35 C27         6.6464    3.5769   10.5577 C.ar      1 <0>        -0.2151
     36 C28         5.6922    3.4276    9.5588 C.ar      1 <0>         0.2398
     37 C29         5.8749    2.4780    8.5631 C.ar      1 <0>        -0.2281
     38 N7          4.5532    4.2359    9.5535 N.pl3     1 <0>        -0.6326
     39 C30         3.4688    4.0105    8.5846 C.3       1 <0>         0.0873
     40 C31         2.1423    3.9455    9.3502 C.3       1 <0>         0.0456
     41 O2          2.0210    5.1026   10.1809 O.3       1 <0>        -0.3792
     42 C32         3.0299    5.2083   11.1882 C.3       1 <0>         0.0450
     43 C33         4.3994    5.3344   10.5205 C.3       1 <0>         0.0867
     44 H1          7.5750   -5.7921   -4.1616 H         1 <0>         0.1216
     45 H2          5.2637   -5.7903   -3.3125 H         1 <0>         0.1223
     46 H3          4.4784   -3.9449   -1.8839 H         1 <0>         0.1192
     47 H4          8.3135   -2.0995   -2.1595 H         1 <0>         0.1191
     48 H5          9.0984   -3.9442   -3.5893 H         1 <0>         0.1222
     49 H6          6.3977   -0.8645   -1.3242 H         1 <0>         0.1060
     50 H7          4.7970   -1.6344   -1.2096 H         1 <0>         0.1066
     51 H8          5.4236   -0.3743    1.1175 H         1 <0>         0.4109
     52 H9          4.1673   -0.5654    3.3317 H         1 <0>         0.1260
     53 H10         4.4327   -1.1788    5.6977 H         1 <0>         0.1255
     54 H11         6.3437   -2.5510    6.4123 H         1 <0>         0.1139
     55 H12         7.7355   -2.7104    2.3618 H         1 <0>         0.1445
     56 H13        11.1543   -4.3785    7.8452 H         1 <0>         0.1771
     57 H14        12.6445   -6.2864    7.0483 H         1 <0>         0.2222
     58 H15         9.5807   -3.7099    8.7142 H         1 <0>         0.1400
     59 H16         9.0585   -2.0568   10.4850 H         1 <0>         0.1740
     60 H17         6.8678    0.8773    6.6782 H         1 <0>         0.4235
     61 H18         8.8371    1.2039    9.5853 H         1 <0>         0.1306
     62 H19         8.5131    2.8948   11.3418 H         1 <0>         0.1237
     63 H20         6.5071    4.3186   11.3303 H         1 <0>         0.1215
     64 H21         5.1369    2.3629    7.7830 H         1 <0>         0.1236
     65 H22         3.4396    4.8318    7.8686 H         1 <0>         0.0706
     66 H23         3.6357    3.0703    8.0590 H         1 <0>         0.0912
     67 H24         1.3142    3.9173    8.6419 H         1 <0>         0.1048
     68 H25         2.1230    3.0489    9.9698 H         1 <0>         0.0557
     69 H26         2.8405    6.0886   11.8024 H         1 <0>         0.1056
     70 H27         3.0139    4.3163   11.8145 H         1 <0>         0.0557
     71 H28         5.1823    5.2705   11.2762 H         1 <0>         0.0944
     72 H29         4.4654    6.2913   10.0027 H         1 <0>         0.0708
@<TRIPOS>BOND
     1    1    6 ar
     2    1    2 ar
     3    1   44 1
     4    2    3 ar
     5    2   45 1
     6    3    4 ar
     7    3   46 1
     8    4    5 ar
     9    4    7 1
    10    5    6 ar
    11    5   47 1
    12    6   48 1
    13    7    8 1
    14    7   49 1
    15    7   50 1
    16    8    9 2
    17    8   10 am
    18   10   11 1
    19   10   51 1
    20   11   16 ar
    21   11   12 ar
    22   12   13 ar
    23   12   52 1
    24   13   14 ar
    25   13   53 1
    26   14   15 ar
    27   14   54 1
    28   15   16 ar
    29   15   17 1
    30   16   55 1
    31   17   24 1
    32   17   18 2
    33   18   19 1
    34   18   25 1
    35   19   23 1
    36   19   20 1
    37   20   21 2
    38   20   56 1
    39   21   22 1
    40   21   57 1
    41   22   23 1
    42   23   24 2
    43   25   30 ar
    44   25   26 ar
    45   26   27 ar
    46   26   58 1
    47   27   28 ar
    48   27   59 1
    49   28   29 ar
    50   29   30 ar
    51   29   31 1
    52   31   32 1
    53   31   60 1
    54   32   37 ar
    55   32   33 ar
    56   33   34 ar
    57   33   61 1
    58   34   35 ar
    59   34   62 1
    60   35   36 ar
    61   35   63 1
    62   36   37 ar
    63   36   38 1
    64   37   64 1
    65   38   43 1
    66   38   39 1
    67   39   40 1
    68   39   65 1
    69   39   66 1
    70   40   41 1
    71   40   67 1
    72   40   68 1
    73   41   42 1
    74   42   43 1
    75   42   69 1
    76   42   70 1
    77   43   71 1
    78   43   72 1
@<TRIPOS>MOLECULE
CHEMBL272693
   56    60     0     0     0
SMALL
USER_CHARGES

@<TRIPOS>ATOM
      1 C1          2.0514    0.1466   -0.3882 C.3       1 <0>         0.0148
      2 O1          0.8244   -0.5417   -0.1377 O.3       1 <0>        -0.2863
      3 C2          0.3381   -0.4946    1.1312 C.ar      1 <0>         0.1350
      4 C3          1.0203    0.1957    2.0911 C.ar      1 <0>        -0.1366
      5 C4          0.5181    0.2446    3.4001 C.ar      1 <0>        -0.0898
      6 C5          1.1965    0.9496    4.4196 C.ar      1 <0>         0.2828
      7 C6          0.6400    0.9534    5.6865 C.ar      1 <0>        -0.2642
      8 C7         -0.5504    0.2756    5.9180 C.ar      1 <0>         0.2262
      9 N1         -1.1722   -0.3765    4.9639 N.ar      1 <0>        -0.4813
     10 C8         -0.6911   -0.4216    3.7158 C.ar      1 <0>         0.1817
     11 C9         -1.3700   -1.1239    2.7063 C.ar      1 <0>        -0.2356
     12 C10        -0.8622   -1.1507    1.4394 C.ar      1 <0>         0.2163
     13 O2         -1.5258   -1.8270    0.4653 O.3       1 <0>        -0.2774
     14 C11        -2.7430   -2.4753    0.8397 C.3       1 <0>         0.0116
     15 O3          2.3575    1.6021    4.1644 O.3       1 <0>        -0.2128
     16 C12         2.9064    2.3417    5.1633 C.ar      1 <0>         0.0444
     17 C13         3.5699    1.6997    6.2131 C.ar      1 <0>        -0.1335
     18 C14         4.1291    2.4150    7.2276 C.ar      1 <0>        -0.0855
     19 C15         4.0413    3.8141    7.2236 C.ar      1 <0>        -0.0002
     20 C16         3.3705    4.4690    6.1619 C.ar      1 <0>        -0.0534
     21 C17         2.8079    3.7039    5.1265 C.ar      1 <0>        -0.0776
     22 C18         3.2835    5.8722    6.1578 C.ar      1 <0>        -0.0630
     23 C19         3.8419    6.5953    7.1691 C.ar      1 <0>        -0.1168
     24 C20         4.5041    5.9711    8.2185 C.ar      1 <0>        -0.0496
     25 C21         4.6129    4.5887    8.2641 C.ar      1 <0>        -0.1299
     26 C22         5.3163    3.9328    9.3814 C.2       1 <0>         0.5678
     27 O4          5.5021    2.7312    9.3613 O.2       1 <0>        -0.5079
     28 N2          5.7534    4.6649   10.4252 N.am      1 <0>        -0.6622
     29 C23         6.3373    4.0343   11.5233 C.ar      1 <0>         0.1810
     30 C24         7.1254    2.8960   11.3587 C.ar      1 <0>        -0.1741
     31 C25         7.6855    2.3021   12.4706 C.ar      1 <0>         0.1191
     32 N3          7.4831    2.7981   13.6767 N.ar      1 <0>        -0.4909
     33 C26         6.7438    3.8733   13.8737 C.ar      1 <0>         0.1209
     34 C27         6.1529    4.5290   12.8136 C.ar      1 <0>        -0.1970
     35 H1          2.8370   -0.2700    0.2422 H         1 <0>         0.0673
     36 H2          2.3263    0.0294   -1.4365 H         1 <0>         0.1188
     37 H3          1.9268    1.2054   -0.1615 H         1 <0>         0.0667
     38 H4          1.9421    0.7013    1.8442 H         1 <0>         0.1726
     39 H5          1.1291    1.4809    6.4920 H         1 <0>         0.1849
     40 H6         -0.9756    0.2853    6.9107 H         1 <0>         0.2124
     41 H7         -2.2933   -1.6372    2.9307 H         1 <0>         0.1714
     42 H8         -3.1697   -2.9766   -0.0291 H         1 <0>         0.1217
     43 H9         -2.5388   -3.2096    1.6189 H         1 <0>         0.0695
     44 H10        -3.4490   -1.7343    1.2147 H         1 <0>         0.0693
     45 H11         3.6395    0.6220    6.2196 H         1 <0>         0.1389
     46 H12         4.6382    1.9063    8.0329 H         1 <0>         0.1832
     47 H13         2.2972    4.1896    4.3082 H         1 <0>         0.1471
     48 H14         2.7735    6.3782    5.3514 H         1 <0>         0.1424
     49 H15         3.7686    7.6727    7.1542 H         1 <0>         0.1440
     50 H16         4.9380    6.5678    9.0072 H         1 <0>         0.1366
     51 H17         5.6618    5.6305   10.4125 H         1 <0>         0.4152
     52 H18         7.2947    2.4848   10.3745 H         1 <0>         0.1497
     53 H19         8.2971    1.4198   12.3526 H         1 <0>         0.1618
     54 H20         6.6030    4.2471   14.8771 H         1 <0>         0.1631
     55 H21         5.5528    5.4112   12.9813 H         1 <0>         0.1397
     56 H22        -2.0009   -0.8372    5.1683 H         1 <0>         0.4476
@<TRIPOS>BOND
     1    1    2 1
     2    1   35 1
     3    1   36 1
     4    1   37 1
     5    2    3 1
     6    3   12 ar
     7    3    4 ar
     8    4    5 ar
     9    4   38 1
    10    5   10 ar
    11    5    6 ar
    12    6    7 ar
    13    6   15 1
    14    7    8 ar
    15    7   39 1
    16    8    9 ar
    17    8   40 1
    18    9   10 ar
    19    9   56 1
    20   10   11 ar
    21   11   12 ar
    22   11   41 1
    23   12   13 1
    24   13   14 1
    25   14   42 1
    26   14   43 1
    27   14   44 1
    28   15   16 1
    29   16   21 ar
    30   16   17 ar
    31   17   18 ar
    32   17   45 1
    33   18   19 ar
    34   18   46 1
    35   19   25 ar
    36   19   20 ar
    37   20   21 ar
    38   20   22 ar
    39   21   47 1
    40   22   23 ar
    41   22   48 1
    42   23   24 ar
    43   23   49 1
    44   24   25 ar
    45   24   50 1
    46   25   26 1
    47   26   27 2
    48   26   28 am
    49   28   29 1
    50   28   51 1
    51   29   34 ar
    52   29   30 ar
    53   30   31 ar
    54   30   52 1
    55   31   32 ar
    56   31   53 1
    57   32   33 ar
    58   33   34 ar
    59   33   54 1
    60   34   55 1
@<TRIPOS>MOLECULE
CHEMBL409673
   44    47     0     0     0
SMALL
USER_CHARGES

@<TRIPOS>ATOM
      1 C1         -1.0465    1.9925   -0.3910 C.3       1 <0>        -0.1518
      2 C2         -0.3836    0.6220   -0.2390 C.3       1 <0>        -0.0235
      3 C3          0.7008    0.6966    0.8378 C.3       1 <0>        -0.1591
      4 C4         -1.4202   -0.3958    0.1618 C.2       1 <0>        -0.0074
      5 C5         -2.2343   -0.3587    1.3132 C.2       1 <0>        -0.1984
      6 C6         -3.0379   -1.4879    1.2835 C.2       1 <0>         0.1334
      7 N1         -2.7486   -2.1937    0.1815 N.pl3     1 <0>        -0.2306
      8 C7         -1.7591   -1.5372   -0.5279 C.2       1 <0>        -0.1143
      9 C8         -1.3036   -2.1118   -1.7412 C.2       1 <0>         0.5358
     10 N2         -1.8369   -3.2482   -2.1568 N.2       1 <0>        -0.6180
     11 C9         -2.7917   -3.8662   -1.4635 C.2       1 <0>         0.3444
     12 N3         -3.2501   -3.3974   -0.3361 N.2       1 <0>        -0.3557
     13 N4         -0.3162   -1.4928   -2.4794 N.pl3     1 <0>        -0.6140
     14 C10         0.0282   -1.9886   -3.7432 C.ar      1 <0>         0.0634
     15 C11         1.3303   -1.8749   -4.2109 C.ar      1 <0>        -0.0523
     16 C12         1.6186   -2.3863   -5.4779 C.ar      1 <0>        -0.1351
     17 C13         2.8285   -2.4585   -6.2992 C.2       1 <0>        -0.1976
     18 C14         2.4873   -3.0722   -7.4432 C.2       1 <0>         0.0685
     19 N5          1.1579   -3.3979   -7.4196 N.pl3     1 <0>        -0.5813
     20 H1          0.6826   -3.8484   -8.1352 H         1 <0>         0.4218
     21 C15         0.5950   -2.9927   -6.2310 C.ar      1 <0>         0.2761
     22 N6         -0.6322   -3.0745   -5.7353 N.ar      1 <0>        -0.4793
     23 C16        -0.9303   -2.6063   -4.5423 C.ar      1 <0>         0.1610
     24 C17        -2.2307    0.6847    2.3533 C.2       1 <0>         0.5385
     25 O1         -1.3948    1.5664    2.3266 O.2       1 <0>        -0.4894
     26 O2         -3.1542    0.6613    3.3344 O.3       1 <0>        -0.3502
     27 C18        -3.0914    1.7040    4.3095 C.3       1 <0>         0.0357
     28 H2         -0.2799    2.7519   -0.5448 H         1 <0>         0.0637
     29 H3         -1.7200    1.9773   -1.2480 H         1 <0>         0.0497
     30 H4         -1.6120    2.2247    0.5114 H         1 <0>         0.0815
     31 H5          0.0659    0.3286   -1.1876 H         1 <0>         0.0603
     32 H6          0.2365    0.8590    1.8105 H         1 <0>         0.0932
     33 H7          1.2614   -0.2380    0.8542 H         1 <0>         0.0476
     34 H8          1.3771    1.5221    0.6157 H         1 <0>         0.0623
     35 H9         -3.7751   -1.7550    2.0261 H         1 <0>         0.1967
     36 H10        -3.1956   -4.7924   -1.8449 H         1 <0>         0.2241
     37 H11         0.1395   -0.7141   -2.1232 H         1 <0>         0.4240
     38 H12         2.0970   -1.4048   -3.6130 H         1 <0>         0.1395
     39 H13         3.8082   -2.0887   -6.0351 H         1 <0>         0.1530
     40 H14         3.1616   -3.2779   -8.2614 H         1 <0>         0.1807
     41 H15        -1.9423   -2.6991   -4.1765 H         1 <0>         0.1748
     42 H16        -2.1263    1.6711    4.8150 H         1 <0>         0.0626
     43 H17        -3.2111    2.6693    3.8175 H         1 <0>         0.0625
     44 H18        -3.8889    1.5671    5.0397 H         1 <0>         0.1034
@<TRIPOS>BOND
     1    1    2 1
     2    1   28 1
     3    1   29 1
     4    1   30 1
     5    2    3 1
     6    2    4 1
     7    2   31 1
     8    3   32 1
     9    3   33 1
    10    3   34 1
    11    4    8 2
    12    4    5 1
    13    5    6 2
    14    5   24 1
    15    6    7 1
    16    6   35 1
    17    7   12 1
    18    7    8 1
    19    8    9 1
    20    9   10 2
    21    9   13 1
    22   10   11 1
    23   11   12 2
    24   11   36 1
    25   13   14 1
    26   13   37 1
    27   14   23 ar
    28   14   15 ar
    29   15   16 ar
    30   15   38 1
    31   16   21 ar
    32   16   17 1
    33   17   18 2
    34   17   39 1
    35   18   19 1
    36   18   40 1
    37   19   20 1
    38   19   21 1
    39   21   22 ar
    40   22   23 ar
    41   23   41 1
    42   24   25 2
    43   24   26 1
    44   26   27 1
    45   27   42 1
    46   27   43 1
    47   27   44 1
@<TRIPOS>MOLECULE
CHEMBL119276
   58    62     0     0     0
SMALL
USER_CHARGES

@<TRIPOS>ATOM
      1 C1         -2.1027    1.0480   -2.6047 C.3       1 <0>        -0.1745
      2 C2         -1.5928    0.8352   -1.2027 C.2       1 <0>         0.5120
      3 O1         -0.9139    1.6866   -0.6685 O.2       1 <0>        -0.5461
      4 N1         -1.8912   -0.3012   -0.5423 N.am      1 <0>        -0.6175
      5 C3         -2.7078   -1.3489   -1.1737 C.3       1 <0>         0.1121
      6 C4         -3.8485   -1.7182   -0.2194 C.3       1 <0>         0.0370
      7 N2         -3.2901   -2.0720    1.0925 N.3       1 <0>        -0.5300
      8 C5         -2.6008   -0.9280    1.7042 C.3       1 <0>         0.0437
      9 C6         -1.4038   -0.5290    0.8266 C.3       1 <0>         0.1153
     10 C7         -4.3328   -2.5966    1.9843 C.3       1 <0>         0.0554
     11 C8         -4.6776   -4.0307    1.5776 C.3       1 <0>         0.0678
     12 O2         -3.5388   -4.8700    1.7798 O.3       1 <0>        -0.2981
     13 C9         -3.6778   -6.1856    1.4649 C.ar      1 <0>         0.1050
     14 C10        -4.8900   -6.6547    0.9646 C.ar      1 <0>        -0.1771
     15 C11        -5.0483   -7.9839    0.6400 C.ar      1 <0>        -0.0913
     16 C12        -3.9924   -8.8725    0.8105 C.ar      1 <0>         0.0736
     17 C13        -2.7656   -8.4024    1.3159 C.ar      1 <0>        -0.0670
     18 C14        -2.6153   -7.0494    1.6370 C.ar      1 <0>        -0.1079
     19 C15        -1.8753   -9.5598    1.3763 C.2       1 <0>        -0.1644
     20 C16        -2.5816  -10.6273    0.9223 C.2       1 <0>         0.1376
     21 N3         -3.8526  -10.2262    0.5804 N.pl3     1 <0>        -0.5894
     22 H1         -4.5460  -10.8073    0.2305 H         1 <0>         0.4134
     23 C17        -2.0651  -12.0055    0.8118 C.2       1 <0>        -0.1351
     24 C18        -1.9259  -12.6008   -0.4242 C.2       1 <0>         0.0046
     25 C19        -1.4272  -13.9256   -0.4997 C.ar      1 <0>        -0.1340
     26 C20        -1.2753  -14.5547   -1.7442 C.ar      1 <0>        -0.0506
     27 C21        -0.7940  -15.8303   -1.8070 C.ar      1 <0>        -0.1509
     28 C22        -0.4522  -16.5135   -0.6476 C.ar      1 <0>        -0.0553
     29 C23        -0.5930  -15.9168    0.5862 C.ar      1 <0>        -0.1671
     30 C24        -1.0815  -14.6160    0.6768 C.ar      1 <0>         0.1937
     31 N4         -1.2232  -14.0142    1.9105 N.am      1 <0>        -0.6283
     32 C25        -1.6882  -12.7552    2.0157 C.2       1 <0>         0.5447
     33 O3         -1.8015  -12.2391    3.1131 O.2       1 <0>        -0.5128
     34 H2         -1.7621    2.0161   -2.9722 H         1 <0>         0.0928
     35 H3         -1.7223    0.2589   -3.2534 H         1 <0>         0.0890
     36 H4         -3.1924    1.0230   -2.6028 H         1 <0>         0.0872
     37 H5         -3.1207   -0.9763   -2.1111 H         1 <0>         0.0907
     38 H6         -2.0918   -2.2275   -1.3653 H         1 <0>         0.0806
     39 H7         -4.5216   -0.8678   -0.1109 H         1 <0>         0.0401
     40 H8         -4.3985   -2.5688   -0.6220 H         1 <0>         0.0882
     41 H9         -3.2913   -0.0886    1.7860 H         1 <0>         0.0389
     42 H10        -2.2459   -1.2056    2.6967 H         1 <0>         0.0907
     43 H11        -0.6649   -1.3303    0.8235 H         1 <0>         0.0777
     44 H12        -0.9542    0.3860    1.2122 H         1 <0>         0.0960
     45 H13        -3.9701   -2.5877    3.0121 H         1 <0>         0.0887
     46 H14        -5.2237   -1.9732    1.9080 H         1 <0>         0.0593
     47 H15        -5.5072   -4.3913    2.1856 H         1 <0>         0.0645
     48 H16        -4.9621   -4.0516    0.5256 H         1 <0>         0.0601
     49 H17        -5.7140   -5.9696    0.8302 H         1 <0>         0.1290
     50 H18        -5.9931   -8.3362    0.2532 H         1 <0>         0.1226
     51 H19        -1.6744   -6.6835    2.0209 H         1 <0>         0.1314
     52 H20        -0.8503   -9.5651    1.7167 H         1 <0>         0.1475
     53 H21        -2.1937  -12.0649   -1.3229 H         1 <0>         0.1461
     54 H22        -1.5390  -14.0307   -2.6510 H         1 <0>         0.1372
     55 H23        -0.6783  -16.3123   -2.7665 H         1 <0>         0.1327
     56 H24        -0.0727  -17.5225   -0.7136 H         1 <0>         0.1349
     57 H25        -0.3243  -16.4570    1.4820 H         1 <0>         0.1363
     58 H26        -0.9802  -14.5031    2.7122 H         1 <0>         0.4195
@<TRIPOS>BOND
     1    1    2 1
     2    1   34 1
     3    1   35 1
     4    1   36 1
     5    2    3 2
     6    2    4 am
     7    4    9 1
     8    4    5 1
     9    5    6 1
    10    5   37 1
    11    5   38 1
    12    6    7 1
    13    6   39 1
    14    6   40 1
    15    7    8 1
    16    7   10 1
    17    8    9 1
    18    8   41 1
    19    8   42 1
    20    9   43 1
    21    9   44 1
    22   10   11 1
    23   10   45 1
    24   10   46 1
    25   11   12 1
    26   11   47 1
    27   11   48 1
    28   12   13 1
    29   13   18 ar
    30   13   14 ar
    31   14   15 ar
    32   14   49 1
    33   15   16 ar
    34   15   50 1
    35   16   21 1
    36   16   17 ar
    37   17   18 ar
    38   17   19 1
    39   18   51 1
    40   19   20 2
    41   19   52 1
    42   20   21 1
    43   20   23 1
    44   21   22 1
    45   23   32 1
    46   23   24 2
    47   24   25 1
    48   24   53 1
    49   25   30 ar
    50   25   26 ar
    51   26   27 ar
    52   26   54 1
    53   27   28 ar
    54   27   55 1
    55   28   29 ar
    56   28   56 1
    57   29   30 ar
    58   29   57 1
    59   30   31 1
    60   31   32 am
    61   31   58 1
    62   32   33 2
@<TRIPOS>MOLECULE
CHEMBL119276__1
   59    63     0     0     0
SMALL
USER_CHARGES

@<TRIPOS>ATOM
      1 C1         -2.4704    0.5470   -3.0993 C.3       1 <0>        -0.1799
      2 C2         -2.0285    0.6820   -1.6649 C.2       1 <0>         0.5211
      3 O1         -1.5538    1.7267   -1.2723 O.2       1 <0>        -0.5136
      4 N1         -2.1609   -0.3582   -0.8182 N.am      1 <0>        -0.6378
      5 C3         -2.7283   -1.6368   -1.2738 C.3       1 <0>         0.0865
      6 C4         -3.8323   -2.0539   -0.2965 C.3       1 <0>        -0.0280
      7 N2         -3.2912   -2.0830    1.0682 N.4       1 <0>        -0.3851
      8 C5         -2.8922   -0.7303    1.4769 C.3       1 <0>        -0.0193
      9 C6         -1.7365   -0.2493    0.5861 C.3       1 <0>         0.0875
     10 C7         -4.3179   -2.5881    1.9895 C.3       1 <0>        -0.0010
     11 C8         -4.6154   -4.0540    1.6674 C.3       1 <0>         0.0277
     12 O2         -3.4438   -4.8393    1.8967 O.3       1 <0>        -0.3294
     13 C9         -3.5388   -6.1745    1.6565 C.ar      1 <0>         0.0810
     14 C10        -4.7399   -6.7137    1.2023 C.ar      1 <0>        -0.1777
     15 C11        -4.8538   -8.0636    0.9534 C.ar      1 <0>        -0.0836
     16 C12        -3.7636   -8.9030    1.1552 C.ar      1 <0>         0.0851
     17 C13        -2.5479   -8.3618    1.6142 C.ar      1 <0>        -0.0682
     18 C14        -2.4429   -6.9887    1.8584 C.ar      1 <0>        -0.0921
     19 C15        -1.6148   -9.4814    1.7233 C.2       1 <0>        -0.1677
     20 C16        -2.2878  -10.5971    1.3399 C.2       1 <0>         0.1563
     21 N3         -3.5774  -10.2614    0.9971 N.pl3     1 <0>        -0.5853
     22 H1         -4.2539  -10.8854    0.6909 H         1 <0>         0.4184
     23 C17        -1.7226  -11.9598    1.2965 C.2       1 <0>        -0.1532
     24 C18        -1.5792  -12.6170    0.0928 C.2       1 <0>         0.0177
     25 C19        -1.0332  -13.9252    0.0818 C.ar      1 <0>        -0.1404
     26 C20        -0.8759  -14.6162   -1.1287 C.ar      1 <0>        -0.0493
     27 C21        -0.3490  -15.8752   -1.1295 C.ar      1 <0>        -0.1489
     28 C22         0.0341  -16.4807    0.0598 C.ar      1 <0>        -0.0494
     29 C23        -0.1111  -15.8221    1.2613 C.ar      1 <0>        -0.1671
     30 C24        -0.6457  -14.5367    1.2885 C.ar      1 <0>         0.1965
     31 N4         -0.7919  -13.8732    2.4896 N.am      1 <0>        -0.6264
     32 C25        -1.3013  -12.6279    2.5333 C.2       1 <0>         0.5469
     33 O3         -1.4179  -12.0563    3.6026 O.2       1 <0>        -0.5170
     34 H2         -2.2863    1.4835   -3.6258 H         1 <0>         0.1041
     35 H3         -1.9094   -0.2554   -3.5783 H         1 <0>         0.0961
     36 H4         -3.5350    0.3153   -3.1313 H         1 <0>         0.0935
     37 H5         -3.1493   -1.5158   -2.2719 H         1 <0>         0.1328
     38 H6         -1.9483   -2.3979   -1.2918 H         1 <0>         0.0992
     39 H7         -4.6523   -1.3376   -0.3472 H         1 <0>         0.1361
     40 H8         -4.1985   -3.0453   -0.5634 H         1 <0>         0.1433
     41 H9         -3.7407   -0.0540    1.3726 H         1 <0>         0.1345
     42 H10        -2.5657   -0.7462    2.5168 H         1 <0>         0.1455
     43 H11        -0.8581   -0.8727    0.7526 H         1 <0>         0.0962
     44 H12        -1.5014    0.7894    0.8182 H         1 <0>         0.1364
     45 H13        -3.9573   -2.5074    3.0150 H         1 <0>         0.1447
     46 H14        -5.2283   -1.9994    1.8771 H         1 <0>         0.1486
     47 H15        -5.4225   -4.4100    2.3076 H         1 <0>         0.1089
     48 H16        -4.9139   -4.1431    0.6229 H         1 <0>         0.0841
     49 H17        -5.5904   -6.0671    1.0440 H         1 <0>         0.1295
     50 H18        -5.7904   -8.4704    0.6018 H         1 <0>         0.1292
     51 H19        -1.5108   -6.5686    2.2064 H         1 <0>         0.1333
     52 H20        -0.5857   -9.4311    2.0469 H         1 <0>         0.1519
     53 H21        -1.8792  -12.1416   -0.8293 H         1 <0>         0.1458
     54 H22        -1.1715  -14.1529   -2.0584 H         1 <0>         0.1378
     55 H23        -0.2293  -16.4050   -2.0630 H         1 <0>         0.1350
     56 H24         0.4495  -17.4774    0.0430 H         1 <0>         0.1377
     57 H25         0.1901  -16.3021    2.1807 H         1 <0>         0.1384
     58 H26        -0.5198  -14.3081    3.3128 H         1 <0>         0.4215
     59 H27        -2.4876   -2.6925    1.0972 H         1 <0>         0.4318
@<TRIPOS>BOND
     1    1    2 1
     2    1   34 1
     3    1   35 1
     4    1   36 1
     5    2    3 2
     6    2    4 am
     7    4    9 1
     8    4    5 1
     9    5    6 1
    10    5   37 1
    11    5   38 1
    12    6    7 1
    13    6   39 1
    14    6   40 1
    15    7    8 1
    16    7   10 1
    17    7   59 1
    18    8    9 1
    19    8   41 1
    20    8   42 1
    21    9   43 1
    22    9   44 1
    23   10   11 1
    24   10   45 1
    25   10   46 1
    26   11   12 1
    27   11   47 1
    28   11   48 1
    29   12   13 1
    30   13   18 ar
    31   13   14 ar
    32   14   15 ar
    33   14   49 1
    34   15   16 ar
    35   15   50 1
    36   16   21 1
    37   16   17 ar
    38   17   18 ar
    39   17   19 1
    40   18   51 1
    41   19   20 2
    42   19   52 1
    43   20   21 1
    44   20   23 1
    45   21   22 1
    46   23   32 1
    47   23   24 2
    48   24   25 1
    49   24   53 1
    50   25   30 ar
    51   25   26 ar
    52   26   27 ar
    53   26   54 1
    54   27   28 ar
    55   27   55 1
    56   28   29 ar
    57   28   56 1
    58   29   30 ar
    59   29   57 1
    60   30   31 1
    61   31   32 am
    62   31   58 1
    63   32   33 2
@<TRIPOS>MOLECULE
CHEMBL231370
   67    72     0     0     0
SMALL
USER_CHARGES

@<TRIPOS>ATOM
      1 C1          3.4648   -1.6612    2.8609 C.3       1 <0>        -0.0640
      2 N1          2.3057   -2.5527    2.7200 N.4       1 <0>        -0.3833
      3 C2          2.1445   -2.9388    1.3020 C.3       1 <0>        -0.0107
      4 C3          0.6127   -3.0097    1.0830 C.3       1 <0>        -0.1443
      5 C4          0.1162   -1.8273    1.9561 C.3       1 <0>        -0.1307
      6 C5          1.0845   -1.8518    3.1575 C.3       1 <0>         0.0207
      7 H1          0.6284   -2.3865    3.9906 H         1 <0>         0.1534
      8 C6          1.4279   -0.4214    3.5784 C.3       1 <0>         0.0417
      9 O1          0.2220    0.3069    3.8184 O.3       1 <0>        -0.2919
     10 C7          0.3509    1.6038    4.2035 C.ar      1 <0>         0.1953
     11 C8          1.6111    2.1643    4.3416 C.ar      1 <0>        -0.2272
     12 C9          1.7391    3.4890    4.7351 C.ar      1 <0>         0.2366
     13 C10         0.6039    4.2492    4.9893 C.ar      1 <0>        -0.1749
     14 C11        -0.6499    3.6868    4.8509 C.ar      1 <0>        -0.0031
     15 C12        -0.7793    2.3694    4.4531 C.ar      1 <0>        -0.2243
     16 C13        -2.1495    1.7618    4.2964 C.3       1 <0>         0.5178
     17 F1         -3.1222    2.7202    4.6008 F         1 <0>        -0.1725
     18 F2         -2.3191    1.3280    2.9772 F         1 <0>        -0.1745
     19 F3         -2.2791    0.6733    5.1656 F         1 <0>        -0.1733
     20 N2          3.0084    4.0578    4.8760 N.pl3     1 <0>        -0.6343
     21 C14         4.0699    3.5682    4.1408 C.2       1 <0>         0.5635
     22 N3          4.0113    2.5474    3.3232 N.2       1 <0>        -0.5365
     23 C15         5.2343    2.3376    2.7664 C.ar      1 <0>         0.1000
     24 C16         5.7220    1.4041    1.8484 C.ar      1 <0>        -0.0687
     25 C17         7.0435    1.4452    1.4660 C.ar      1 <0>        -0.1140
     26 C18         7.8989    2.4108    1.9881 C.ar      1 <0>         0.0415
     27 C19         7.4292    3.3414    2.8987 C.ar      1 <0>        -0.0734
     28 C20         6.0997    3.3112    3.2913 C.ar      1 <0>         0.0578
     29 N4          5.3365    4.0806    4.1538 N.pl3     1 <0>        -0.6081
     30 O2          9.2023    2.4400    1.6022 O.3       1 <0>        -0.2058
     31 C21         9.4964    2.9802    0.3943 C.ar      1 <0>         0.2861
     32 C22         8.5221    3.6050   -0.3642 C.ar      1 <0>        -0.2699
     33 C23         8.8540    4.1498   -1.5981 C.ar      1 <0>         0.2378
     34 N5         10.0753    4.0908   -2.0749 N.ar      1 <0>        -0.4819
     35 C24        11.0658    3.5022   -1.3956 C.ar      1 <0>         0.1617
     36 C25        10.8093    2.9282   -0.1272 C.ar      1 <0>        -0.1042
     37 C26        11.8531    2.3173    0.5827 C.ar      1 <0>        -0.0481
     38 C27        13.1050    2.2874    0.0464 C.ar      1 <0>        -0.1026
     39 C28        13.3619    2.8562   -1.1989 C.ar      1 <0>        -0.0206
     40 C29        12.3692    3.4462   -1.9194 C.ar      1 <0>        -0.1450
     41 H2          3.5702   -1.3645    3.9044 H         1 <0>         0.1254
     42 H3          4.3658   -2.1831    2.5388 H         1 <0>         0.1296
     43 H4          3.3183   -0.7745    2.2441 H         1 <0>         0.1262
     44 H5          2.5865   -2.1847    0.6508 H         1 <0>         0.1323
     45 H6          2.5994   -3.9124    1.1198 H         1 <0>         0.1399
     46 H7          0.3605   -2.8533    0.0341 H         1 <0>         0.1203
     47 H8          0.2102   -3.9566    1.4427 H         1 <0>         0.1027
     48 H9          0.1993   -0.8858    1.4132 H         1 <0>         0.1020
     49 H10        -0.9096   -1.9948    2.2845 H         1 <0>         0.1205
     50 H11         2.0258   -0.4445    4.4895 H         1 <0>         0.0883
     51 H12         1.9942    0.0650    2.7843 H         1 <0>         0.0945
     52 H13         2.4917    1.5711    4.1438 H         1 <0>         0.1698
     53 H14         0.7022    5.2802    5.2956 H         1 <0>         0.1475
     54 H15        -1.5310    4.2789    5.0495 H         1 <0>         0.1595
     55 H16         3.1434    4.7964    5.4902 H         1 <0>         0.4327
     56 H17         5.0636    0.6518    1.4399 H         1 <0>         0.1388
     57 H18         7.4192    0.7231    0.7563 H         1 <0>         0.1443
     58 H19         8.0963    4.0888    3.3022 H         1 <0>         0.1436
     59 H20         7.5079    3.6685    0.0015 H         1 <0>         0.1834
     60 H21         8.0856    4.6350   -2.1815 H         1 <0>         0.2127
     61 H22        11.6656    1.8735    1.5492 H         1 <0>         0.1612
     62 H23        13.9085    1.8171    0.5938 H         1 <0>         0.1574
     63 H24        14.3627    2.8200   -1.6034 H         1 <0>         0.1604
     64 H25        12.5849    3.8819   -2.8838 H         1 <0>         0.1620
     65 H26         2.4422   -3.3797    3.2817 H         1 <0>         0.4346
     66 H27        10.2643    4.4835   -2.9415 H         1 <0>         0.4504
     67 H28         5.6444    4.8402    4.6726 H         1 <0>         0.4339
@<TRIPOS>BOND
     1    1    2 1
     2    1   41 1
     3    1   42 1
     4    1   43 1
     5    2    6 1
     6    2    3 1
     7    2   65 1
     8    3    4 1
     9    3   44 1
    10    3   45 1
    11    4    5 1
    12    4   46 1
    13    4   47 1
    14    5    6 1
    15    5   48 1
    16    5   49 1
    17    6    7 1
    18    6    8 1
    19    8    9 1
    20    8   50 1
    21    8   51 1
    22    9   10 1
    23   10   15 ar
    24   10   11 ar
    25   11   12 ar
    26   11   52 1
    27   12   13 ar
    28   12   20 1
    29   13   14 ar
    30   13   53 1
    31   14   15 ar
    32   14   54 1
    33   15   16 1
    34   16   17 1
    35   16   18 1
    36   16   19 1
    37   20   21 1
    38   20   55 1
    39   21   29 1
    40   21   22 2
    41   22   23 1
    42   23   28 ar
    43   23   24 ar
    44   24   25 ar
    45   24   56 1
    46   25   26 ar
    47   25   57 1
    48   26   27 ar
    49   26   30 1
    50   27   28 ar
    51   27   58 1
    52   28   29 1
    53   29   67 1
    54   30   31 1
    55   31   36 ar
    56   31   32 ar
    57   32   33 ar
    58   32   59 1
    59   33   34 ar
    60   33   60 1
    61   34   35 ar
    62   34   66 1
    63   35   40 ar
    64   35   36 ar
    65   36   37 ar
    66   37   38 ar
    67   37   61 1
    68   38   39 ar
    69   38   62 1
    70   39   40 ar
    71   39   63 1
    72   40   64 1
@<TRIPOS>MOLECULE
CHEMBL231370__1
   67    72     0     0     0
SMALL
USER_CHARGES

@<TRIPOS>ATOM
      1 C1          3.3660   -1.7461    3.3831 C.3       1 <0>        -0.0621
      2 N1          2.1640   -2.5791    3.2451 N.4       1 <0>        -0.3834
      3 C2          2.0256   -3.0245    1.8421 C.3       1 <0>        -0.0109
      4 C3          0.4997   -3.0226    1.5751 C.3       1 <0>        -0.1442
      5 C4          0.0432   -1.7739    2.3747 C.3       1 <0>        -0.1312
      6 C5          0.9708   -1.7924    3.6078 C.3       1 <0>         0.0206
      7 H1          0.4598   -2.2604    4.4492 H         1 <0>         0.1544
      8 C6          1.3803   -0.3641    3.9726 C.3       1 <0>         0.0422
      9 O1          0.2098    0.4359    4.1518 O.3       1 <0>        -0.2916
     10 C7          0.3988    1.7406    4.4817 C.ar      1 <0>         0.1917
     11 C8          1.6837    2.2408    4.6239 C.ar      1 <0>        -0.2160
     12 C9          1.8733    3.5739    4.9605 C.ar      1 <0>         0.2359
     13 C10         0.7747    4.4027    5.1537 C.ar      1 <0>        -0.1692
     14 C11        -0.5039    3.9002    5.0114 C.ar      1 <0>        -0.0048
     15 C12        -0.6943    2.5743    4.6707 C.ar      1 <0>        -0.2204
     16 C13        -2.0911    2.0318    4.5099 C.3       1 <0>         0.5177
     17 F1         -3.0180    3.0521    4.7486 F         1 <0>        -0.1717
     18 F2         -2.2561    1.5471    3.2080 F         1 <0>        -0.1742
     19 F3         -2.2958    0.9926    5.4238 F         1 <0>        -0.1736
     20 N2          3.1676    4.0820    5.1053 N.pl3     1 <0>        -0.6386
     21 C14         4.1895    3.6048    4.3096 C.2       1 <0>         0.5599
     22 N3          5.4656    4.0903    4.2966 N.pl3     1 <0>        -0.6081
     23 H2          5.8095    4.8193    4.8363 H         1 <0>         0.4348
     24 C15         6.1786    3.3463    3.3686 C.ar      1 <0>         0.0662
     25 C16         7.4917    3.3702    2.9234 C.ar      1 <0>        -0.0685
     26 C17         7.9085    2.4738    1.9619 C.ar      1 <0>        -0.1194
     27 C18         7.0183    1.5435    1.4337 C.ar      1 <0>         0.0443
     28 C19         5.7069    1.5076    1.8668 C.ar      1 <0>        -0.0690
     29 C20         5.2739    2.4103    2.8412 C.ar      1 <0>         0.0920
     30 N4          4.0809    2.6151    3.4585 N.2       1 <0>        -0.5350
     31 O2          7.4414    0.6655    0.4859 O.3       1 <0>        -0.2045
     32 C21         8.1841   -0.3952    0.8872 C.ar      1 <0>         0.2880
     33 C22         8.4074   -0.6425    2.2303 C.ar      1 <0>        -0.2736
     34 C23         9.1727   -1.7375    2.6109 C.ar      1 <0>         0.2348
     35 N5          9.6980   -2.5551    1.7288 N.ar      1 <0>        -0.4833
     36 C24         9.5228   -2.3762    0.4151 C.ar      1 <0>         0.1612
     37 C25         8.7497   -1.2864   -0.0530 C.ar      1 <0>        -0.1056
     38 C26         8.5649   -1.1073   -1.4315 C.ar      1 <0>        -0.0477
     39 C27         9.1266   -1.9876   -2.3063 C.ar      1 <0>        -0.1021
     40 C28         9.8824   -3.0646   -1.8488 C.ar      1 <0>        -0.0195
     41 C29        10.0920   -3.2601   -0.5181 C.ar      1 <0>        -0.1461
     42 H3          3.4099   -1.3357    4.3919 H         1 <0>         0.1262
     43 H4          4.2522   -2.3536    3.1992 H         1 <0>         0.1240
     44 H5          3.3281   -0.9309    2.6605 H         1 <0>         0.1262
     45 H6          2.5290   -2.3281    1.1715 H         1 <0>         0.1315
     46 H7          2.4308   -4.0291    1.7212 H         1 <0>         0.1385
     47 H8          0.2894   -2.9040    0.5122 H         1 <0>         0.1212
     48 H9          0.0340   -3.9277    1.9651 H         1 <0>         0.1032
     49 H10         0.1956   -0.8659    1.7913 H         1 <0>         0.1030
     50 H11        -1.0000   -1.8693    2.6757 H         1 <0>         0.1219
     51 H12         1.9570   -0.3764    4.8974 H         1 <0>         0.0872
     52 H13         1.9880    0.0556    3.1710 H         1 <0>         0.0936
     53 H14         2.5357    1.5943    4.4736 H         1 <0>         0.1593
     54 H15         0.9208    5.4402    5.4156 H         1 <0>         0.1485
     55 H16        -1.3565    4.5457    5.1626 H         1 <0>         0.1601
     56 H17         3.3475    4.7700    5.7651 H         1 <0>         0.4328
     57 H18         8.1870    4.0902    3.3290 H         1 <0>         0.1456
     58 H19         8.9316    2.4941    1.6164 H         1 <0>         0.1468
     59 H20         5.0194    0.7840    1.4543 H         1 <0>         0.1393
     60 H21         7.9887    0.0132    2.9794 H         1 <0>         0.1842
     61 H22         9.3405   -1.9209    3.6619 H         1 <0>         0.2115
     62 H23         7.9803   -0.2763   -1.7976 H         1 <0>         0.1622
     63 H24         8.9839   -1.8490   -3.3678 H         1 <0>         0.1580
     64 H25        10.3175   -3.7494   -2.5616 H         1 <0>         0.1606
     65 H26        10.6812   -4.0997   -0.1799 H         1 <0>         0.1617
     66 H27         2.2365   -3.3840    3.8492 H         1 <0>         0.4340
     67 H28        10.2266   -3.3076    2.0374 H         1 <0>         0.4499
@<TRIPOS>BOND
     1    1    2 1
     2    1   42 1
     3    1   43 1
     4    1   44 1
     5    2    6 1
     6    2    3 1
     7    2   66 1
     8    3    4 1
     9    3   45 1
    10    3   46 1
    11    4    5 1
    12    4   47 1
    13    4   48 1
    14    5    6 1
    15    5   49 1
    16    5   50 1
    17    6    7 1
    18    6    8 1
    19    8    9 1
    20    8   51 1
    21    8   52 1
    22    9   10 1
    23   10   15 ar
    24   10   11 ar
    25   11   12 ar
    26   11   53 1
    27   12   13 ar
    28   12   20 1
    29   13   14 ar
    30   13   54 1
    31   14   15 ar
    32   14   55 1
    33   15   16 1
    34   16   17 1
    35   16   18 1
    36   16   19 1
    37   20   21 1
    38   20   56 1
    39   21   30 2
    40   21   22 1
    41   22   23 1
    42   22   24 1
    43   24   29 ar
    44   24   25 ar
    45   25   26 ar
    46   25   57 1
    47   26   27 ar
    48   26   58 1
    49   27   28 ar
    50   27   31 1
    51   28   29 ar
    52   28   59 1
    53   29   30 1
    54   31   32 1
    55   32   37 ar
    56   32   33 ar
    57   33   34 ar
    58   33   60 1
    59   34   35 ar
    60   34   61 1
    61   35   36 ar
    62   35   67 1
    63   36   41 ar
    64   36   37 ar
    65   37   38 ar
    66   38   39 ar
    67   38   62 1
    68   39   40 ar
    69   39   63 1
    70   40   41 ar
    71   40   64 1
    72   41   65 1
@<TRIPOS>MOLECULE
CHEMBL244486
   58    62     0     0     0
SMALL
USER_CHARGES

@<TRIPOS>ATOM
      1 C1          8.5262   15.3535   -5.8070 C.ar      1 <0>        -0.1860
      2 C2          8.8312   14.1271   -5.2423 C.ar      1 <0>        -0.0230
      3 C3          8.4281   13.8849   -3.9249 C.ar      1 <0>        -0.1687
      4 C4          7.7387   14.8831   -3.2367 C.ar      1 <0>         0.1601
      5 N1          7.4712   16.0345   -3.8170 N.ar      1 <0>        -0.4952
      6 C5          7.8392   16.2913   -5.0578 C.ar      1 <0>         0.1224
      7 C6          8.7278   12.5897   -3.2718 C.2       1 <0>         0.5549
      8 O1          9.3304   11.7244   -3.8826 O.2       1 <0>        -0.5799
      9 N2          8.3372   12.3699   -2.0119 N.2       1 <0>        -0.6602
     10 C7          8.5155   11.1751   -1.4602 C.2       1 <0>         0.6589
     11 N3          9.1756   10.1330   -2.0335 N.pl3     1 <0>        -0.6077
     12 H1          9.5926   10.1374   -2.9093 H         1 <0>         0.4522
     13 C8          9.1503    9.0600   -1.1484 C.ar      1 <0>         0.0963
     14 C9          9.6583    7.7707   -1.2108 C.ar      1 <0>        -0.1177
     15 C10         9.4713    6.9040   -0.1463 C.ar      1 <0>         0.1048
     16 C11         8.7772    7.3231    0.9817 C.ar      1 <0>        -0.1032
     17 C12         8.2693    8.6048    1.0487 C.ar      1 <0>        -0.0789
     18 C13         8.4527    9.4790   -0.0131 C.ar      1 <0>         0.0860
     19 N4          8.0725   10.8013   -0.2303 N.pl3     1 <0>        -0.5874
     20 O2          9.9681    5.6400   -0.2059 O.3       1 <0>        -0.2492
     21 C14        11.3063    5.4714   -0.0354 C.ar      1 <0>         0.1081
     22 C15        11.8444    4.1932    0.0068 C.ar      1 <0>        -0.1187
     23 C16        13.2035    4.0214    0.1799 C.ar      1 <0>        -0.0782
     24 C17        14.0317    5.1281    0.3118 C.ar      1 <0>         0.1299
     25 C18        13.4926    6.4069    0.2696 C.ar      1 <0>        -0.1022
     26 C19        12.1341    6.5777    0.0907 C.ar      1 <0>        -0.1743
     27 N5         15.4109    4.9543    0.4880 N.am      1 <0>        -0.6754
     28 C20        16.0448    3.9330   -0.1216 C.2       1 <0>         0.7078
     29 O3         15.4414    3.2221   -0.9021 O.2       1 <0>        -0.5494
     30 N6         17.3473    3.6995    0.1340 N.am      1 <0>        -0.6745
     31 C21        18.0275    2.6910   -0.5603 C.ar      1 <0>         0.1338
     32 C22        17.3265    1.6152   -1.0876 C.ar      1 <0>        -0.0605
     33 C23        17.9998    0.6221   -1.7724 C.ar      1 <0>        -0.1727
     34 C24        19.3711    0.6980   -1.9336 C.ar      1 <0>        -0.0593
     35 C25        20.0739    1.7676   -1.4102 C.ar      1 <0>        -0.1305
     36 C26        19.4056    2.7680   -0.7281 C.ar      1 <0>         0.1006
     37 F1         20.0913    3.8161   -0.2214 F         1 <0>        -0.1279
     38 C27        17.2387   -0.5461   -2.3443 C.3       1 <0>         0.5128
     39 F2         16.8335   -0.2449   -3.6490 F         1 <0>        -0.1721
     40 F3         18.0628   -1.6764   -2.3611 F         1 <0>        -0.1746
     41 F4         16.1131   -0.8013   -1.5536 F         1 <0>        -0.1728
     42 H2          8.8255   15.5774   -6.8202 H         1 <0>         0.1419
     43 H3          9.3665   13.3763   -5.8046 H         1 <0>         0.1437
     44 H4          7.4213   14.7101   -2.2190 H         1 <0>         0.1721
     45 H5          7.5997   17.2491   -5.4956 H         1 <0>         0.1607
     46 H6          7.5757   11.3590    0.3887 H         1 <0>         0.4490
     47 H7         10.1978    7.4433   -2.0872 H         1 <0>         0.1445
     48 H8          8.6341    6.6436    1.8089 H         1 <0>         0.1507
     49 H9          7.7295    8.9270    1.9269 H         1 <0>         0.1482
     50 H10        11.2001    3.3325   -0.0955 H         1 <0>         0.1405
     51 H11        13.6223    3.0265    0.2131 H         1 <0>         0.1445
     52 H12        14.1363    7.2680    0.3721 H         1 <0>         0.1309
     53 H13        11.7153    7.5725    0.0534 H         1 <0>         0.1340
     54 H14        15.9095    5.5691    1.0487 H         1 <0>         0.4109
     55 H15        17.8138    4.2299    0.7988 H         1 <0>         0.4162
     56 H16        16.2556    1.5543   -0.9622 H         1 <0>         0.1793
     57 H17        19.8944   -0.0803   -2.4691 H         1 <0>         0.1497
     58 H18        21.1449    1.8238   -1.5375 H         1 <0>         0.1550
@<TRIPOS>BOND
     1    1    6 ar
     2    1    2 ar
     3    1   42 1
     4    2    3 ar
     5    2   43 1
     6    3    4 ar
     7    3    7 1
     8    4    5 ar
     9    4   44 1
    10    5    6 ar
    11    6   45 1
    12    7    8 2
    13    7    9 1
    14    9   10 2
    15   10   19 1
    16   10   11 1
    17   11   13 1
    18   11   12 1
    19   13   14 ar
    20   13   18 ar
    21   14   15 ar
    22   14   47 1
    23   15   16 ar
    24   15   20 1
    25   16   17 ar
    26   16   48 1
    27   17   18 ar
    28   17   49 1
    29   18   19 1
    30   19   46 1
    31   20   21 1
    32   21   26 ar
    33   21   22 ar
    34   22   23 ar
    35   22   50 1
    36   23   24 ar
    37   23   51 1
    38   24   25 ar
    39   24   27 1
    40   25   26 ar
    41   25   52 1
    42   26   53 1
    43   27   28 am
    44   27   54 1
    45   28   29 2
    46   28   30 am
    47   30   31 1
    48   30   55 1
    49   31   36 ar
    50   31   32 ar
    51   32   33 ar
    52   32   56 1
    53   33   34 ar
    54   33   38 1
    55   34   35 ar
    56   34   57 1
    57   35   36 ar
    58   35   58 1
    59   36   37 1
    60   38   39 1
    61   38   40 1
    62   38   41 1
@<TRIPOS>MOLECULE
CHEMBL244486__1
   58    62     0     0     0
SMALL
USER_CHARGES

@<TRIPOS>ATOM
      1 C1         18.5569   -6.0675    1.7733 C.ar      1 <0>        -0.1861
      2 C2         17.7058   -5.1906    1.1232 C.ar      1 <0>        -0.0229
      3 C3         17.2724   -4.0533    1.8128 C.ar      1 <0>        -0.1688
      4 C4         17.7127   -3.8493    3.1204 C.ar      1 <0>         0.1601
      5 N1         18.5232   -4.7125    3.6967 N.ar      1 <0>        -0.4952
      6 C5         18.9479   -5.7940    3.0713 C.ar      1 <0>         0.1224
      7 C6         16.3616   -3.0815    1.1649 C.2       1 <0>         0.5554
      8 O1         15.9834   -3.2694    0.0218 O.2       1 <0>        -0.5805
      9 N2         15.9541   -1.9979    1.8343 N.2       1 <0>        -0.6604
     10 C7         15.2206   -1.0757    1.2217 C.2       1 <0>         0.6591
     11 N3         14.8378    0.1130    1.7610 N.pl3     1 <0>        -0.5877
     12 H1         15.0533    0.4279    2.6528 H         1 <0>         0.4487
     13 C8         14.0847    0.7998    0.8142 C.ar      1 <0>         0.1001
     14 C9         13.4541    2.0352    0.8228 C.ar      1 <0>        -0.1154
     15 C10        12.7610    2.4632   -0.2979 C.ar      1 <0>         0.1025
     16 C11        12.6966    1.6585   -1.4284 C.ar      1 <0>        -0.1009
     17 C12        13.3220    0.4280   -1.4421 C.ar      1 <0>        -0.0813
     18 C13        14.0185   -0.0075   -0.3238 C.ar      1 <0>         0.0825
     19 N4         14.7380   -1.1674   -0.0461 N.pl3     1 <0>        -0.6073
     20 O2         12.1419    3.6735   -0.2911 O.3       1 <0>        -0.2485
     21 C14        12.9139    4.7859   -0.4128 C.ar      1 <0>         0.1079
     22 C15        12.3192    6.0359   -0.5065 C.ar      1 <0>        -0.1187
     23 C16        13.1028    7.1661   -0.6302 C.ar      1 <0>        -0.0782
     24 C17        14.4861    7.0515   -0.6607 C.ar      1 <0>         0.1300
     25 C18        15.0808    5.8004   -0.5669 C.ar      1 <0>        -0.1023
     26 C19        14.2964    4.6713   -0.4376 C.ar      1 <0>        -0.1745
     27 N5         15.2818    8.1981   -0.7866 N.am      1 <0>        -0.6756
     28 C20        14.8946    9.3536   -0.2110 C.2       1 <0>         0.7079
     29 O3         13.9081    9.3782    0.4994 O.2       1 <0>        -0.5495
     30 N6         15.6008   10.4818   -0.4229 N.am      1 <0>        -0.6745
     31 C21        15.2476   11.6640    0.2401 C.ar      1 <0>         0.1337
     32 C22        13.9427   11.8559    0.6723 C.ar      1 <0>        -0.0606
     33 C23        13.5973   13.0227    1.3264 C.ar      1 <0>        -0.1726
     34 C24        14.5494   13.9999    1.5513 C.ar      1 <0>        -0.0592
     35 C25        15.8507   13.8135    1.1226 C.ar      1 <0>        -0.1305
     36 C26        16.2048   12.6456    0.4718 C.ar      1 <0>         0.1007
     37 F1         17.4774   12.4608    0.0577 F         1 <0>        -0.1278
     38 C27        12.1803   13.2310    1.7952 C.3       1 <0>         0.5128
     39 F2         12.0421   12.7363    3.0965 F         1 <0>        -0.1722
     40 F3         11.8808   14.5975    1.7816 F         1 <0>        -0.1746
     41 F4         11.3026   12.5527    0.9428 F         1 <0>        -0.1728
     42 H2         18.9083   -6.9582    1.2737 H         1 <0>         0.1419
     43 H3         17.3848   -5.3794    0.1095 H         1 <0>         0.1438
     44 H4         17.3863   -2.9757    3.6649 H         1 <0>         0.1720
     45 H5         19.6119   -6.4763    3.5812 H         1 <0>         0.1607
     46 H6         14.8705   -1.9130   -0.6523 H         1 <0>         0.4525
     47 H7         13.5029    2.6619    1.7011 H         1 <0>         0.1464
     48 H8         12.1551    1.9966   -2.2995 H         1 <0>         0.1500
     49 H9         13.2692   -0.1953   -2.3225 H         1 <0>         0.1465
     50 H10        11.2431    6.1249   -0.4831 H         1 <0>         0.1404
     51 H11        12.6397    8.1390   -0.7035 H         1 <0>         0.1443
     52 H12        16.1568    5.7106   -0.5906 H         1 <0>         0.1310
     53 H13        14.7590    3.6985   -0.3601 H         1 <0>         0.1343
     54 H14        16.1113    8.1601   -1.2880 H         1 <0>         0.4110
     55 H15        16.3536   10.4751   -1.0346 H         1 <0>         0.4162
     56 H16        13.1978   11.0938    0.4972 H         1 <0>         0.1793
     57 H17        14.2760   14.9110    2.0626 H         1 <0>         0.1497
     58 H18        16.5920   14.5787    1.2994 H         1 <0>         0.1550
@<TRIPOS>BOND
     1    1    6 ar
     2    1    2 ar
     3    1   42 1
     4    2    3 ar
     5    2   43 1
     6    3    4 ar
     7    3    7 1
     8    4    5 ar
     9    4   44 1
    10    5    6 ar
    11    6   45 1
    12    7    8 2
    13    7    9 1
    14    9   10 2
    15   10   19 1
    16   10   11 1
    17   11   13 1
    18   11   12 1
    19   13   14 ar
    20   13   18 ar
    21   14   15 ar
    22   14   47 1
    23   15   16 ar
    24   15   20 1
    25   16   17 ar
    26   16   48 1
    27   17   18 ar
    28   17   49 1
    29   18   19 1
    30   19   46 1
    31   20   21 1
    32   21   26 ar
    33   21   22 ar
    34   22   23 ar
    35   22   50 1
    36   23   24 ar
    37   23   51 1
    38   24   25 ar
    39   24   27 1
    40   25   26 ar
    41   25   52 1
    42   26   53 1
    43   27   28 am
    44   27   54 1
    45   28   29 2
    46   28   30 am
    47   30   31 1
    48   30   55 1
    49   31   36 ar
    50   31   32 ar
    51   32   33 ar
    52   32   56 1
    53   33   34 ar
    54   33   38 1
    55   34   35 ar
    56   34   57 1
    57   35   36 ar
    58   35   58 1
    59   36   37 1
    60   38   39 1
    61   38   40 1
    62   38   41 1
@<TRIPOS>MOLECULE
CHEMBL370384
   62    65     0     0     0
SMALL
USER_CHARGES

@<TRIPOS>ATOM
      1 C1         -0.0173    1.4822    0.1293 C.3       1 <0>         0.0194
      2 O1          0.0193    0.0537    0.1228 O.3       1 <0>        -0.2996
      3 C2         -1.1751   -0.5939    0.1015 C.ar      1 <0>         0.1234
      4 C3         -2.3357    0.1289    0.0819 C.ar      1 <0>        -0.1490
      5 C4         -3.5633   -0.5388    0.0599 C.ar      1 <0>        -0.1515
      6 C5         -3.5956   -1.9586    0.0583 C.ar      1 <0>         0.1892
      7 C6         -2.3900   -2.6743    0.0788 C.ar      1 <0>        -0.1758
      8 C7         -1.2035   -1.9973    0.0942 C.ar      1 <0>         0.1633
      9 O2         -0.0359   -2.6914    0.1080 O.3       1 <0>        -0.2930
     10 C8         -0.1287   -4.1174    0.0996 C.3       1 <0>         0.0553
     11 C9          1.2774   -4.7201    0.1174 C.3       1 <0>        -0.1486
     12 C10         1.1781   -6.2468    0.1084 C.3       1 <0>        -0.0019
     13 N1          2.5282   -6.8255    0.1256 N.4       1 <0>        -0.3935
     14 C11         3.1799   -6.5665    1.4349 C.3       1 <0>        -0.0093
     15 C12         4.2738   -7.6612    1.5091 C.3       1 <0>        -0.1458
     16 C13         3.5834   -8.8842    0.8628 C.3       1 <0>        -0.1457
     17 C14         2.4540   -8.2970   -0.0038 C.3       1 <0>        -0.0082
     18 N2         -4.7837   -2.5744    0.0366 N.ar      1 <0>        -0.5128
     19 C15        -5.8970   -1.8779    0.0173 C.ar      1 <0>         0.3269
     20 N3         -5.9215   -0.5575    0.0179 N.ar      1 <0>        -0.5286
     21 C16        -4.7991    0.1580    0.0384 C.ar      1 <0>         0.3709
     22 N4         -4.8360    1.5184    0.0388 N.2       1 <0>        -0.3893
     23 C17        -4.7553    2.1726   -1.0850 C.2       1 <0>         0.1736
     24 C18        -4.7553    1.4672   -2.4318 C.3       1 <0>        -0.1613
     25 C19        -5.7842    2.1655   -3.2954 C.2       1 <0>         0.4076
     26 C20        -5.8933    3.6363   -3.2460 C.2       1 <0>         0.1175
     27 C21        -5.3716    4.3475   -2.2163 C.2       1 <0>        -0.2887
     28 C22        -4.6636    3.6584   -1.1306 C.2       1 <0>         0.4436
     29 O3         -4.0241    4.2793   -0.3024 O.2       1 <0>        -0.3943
     30 O4         -6.5263    4.2882   -4.2485 O.3       1 <0>        -0.2694
     31 C23        -6.6030    5.7117   -4.1500 C.3       1 <0>        -0.0090
     32 C24        -7.3483    6.2676   -5.3651 C.3       1 <0>         0.2746
     33 F1         -6.6626    5.9172   -6.5332 F         1 <0>        -0.1941
     34 F2         -8.6403    5.7326   -5.4046 F         1 <0>        -0.1927
     35 O5         -6.5091    1.5244   -4.0188 O.2       1 <0>        -0.3770
     36 H1          1.0006    1.8717    0.1467 H         1 <0>         0.1115
     37 H2         -0.5267    1.8367   -0.7668 H         1 <0>         0.0601
     38 H3         -0.5537    1.8279    1.0130 H         1 <0>         0.0640
     39 H4         -2.3039    1.2085    0.0836 H         1 <0>         0.1512
     40 H5         -2.3994   -3.7543    0.0778 H         1 <0>         0.1563
     41 H6         -0.6782   -4.4509    0.9799 H         1 <0>         0.0785
     42 H7         -0.6519   -4.4421   -0.7998 H         1 <0>         0.0791
     43 H8          1.8269   -4.3866   -0.7629 H         1 <0>         0.1006
     44 H9          1.8006   -4.3953    1.0169 H         1 <0>         0.1000
     45 H10         0.6286   -6.5804    0.9888 H         1 <0>         0.1340
     46 H11         0.6549   -6.5716   -0.7910 H         1 <0>         0.1349
     47 H12         3.6281   -5.5730    1.4517 H         1 <0>         0.1365
     48 H13         2.4651   -6.6810    2.2498 H         1 <0>         0.1348
     49 H14         5.1532   -7.3672    0.9362 H         1 <0>         0.0986
     50 H15         4.5396   -7.8712    2.5452 H         1 <0>         0.1172
     51 H16         4.2908   -9.4332    0.2412 H         1 <0>         0.1057
     52 H17         3.1699   -9.5358    1.6325 H         1 <0>         0.1043
     53 H18         1.4880   -8.6530    0.3542 H         1 <0>         0.1316
     54 H19         2.5965   -8.5859   -1.0451 H         1 <0>         0.1333
     55 H20        -6.8367   -2.4101   -0.0002 H         1 <0>         0.2079
     56 H21        -3.7700    1.5434   -2.8917 H         1 <0>         0.1526
     57 H22        -5.4802    5.4218   -2.1933 H         1 <0>         0.1699
     58 H23        -7.1372    5.9847   -3.2400 H         1 <0>         0.1093
     59 H24        -5.5963    6.1285   -4.1193 H         1 <0>         0.1101
     60 H25        -7.4068    7.3534   -5.2900 H         1 <0>         0.1411
     61 H26        -5.0254    0.4191   -2.3029 H         1 <0>         0.1225
     62 H27         3.0828   -6.4380   -0.6230 H         1 <0>         0.4284
@<TRIPOS>BOND
     1    1    2 1
     2    1   36 1
     3    1   37 1
     4    1   38 1
     5    2    3 1
     6    3    8 ar
     7    3    4 ar
     8    4    5 ar
     9    4   39 1
    10    5   21 ar
    11    5    6 ar
    12    6    7 ar
    13    6   18 ar
    14    7    8 ar
    15    7   40 1
    16    8    9 1
    17    9   10 1
    18   10   11 1
    19   10   41 1
    20   10   42 1
    21   11   12 1
    22   11   43 1
    23   11   44 1
    24   12   13 1
    25   12   45 1
    26   12   46 1
    27   13   17 1
    28   13   14 1
    29   13   62 1
    30   14   15 1
    31   14   47 1
    32   14   48 1
    33   15   16 1
    34   15   49 1
    35   15   50 1
    36   16   17 1
    37   16   51 1
    38   16   52 1
    39   17   53 1
    40   17   54 1
    41   18   19 ar
    42   19   20 ar
    43   19   55 1
    44   20   21 ar
    45   21   22 1
    46   22   23 2
    47   23   28 1
    48   23   24 1
    49   24   56 1
    50   24   61 1
    51   24   25 1
    52   25   35 2
    53   25   26 1
    54   26   30 1
    55   26   27 2
    56   27   28 1
    57   27   57 1
    58   28   29 2
    59   30   31 1
    60   31   32 1
    61   31   58 1
    62   31   59 1
    63   32   33 1
    64   32   34 1
    65   32   60 1
@<TRIPOS>MOLECULE
CHEMBL370384__1
   62    65     0     0     0
SMALL
USER_CHARGES

@<TRIPOS>ATOM
      1 C1         -0.0166    1.4759    0.0632 C.3       1 <0>         0.0203
      2 O1          0.0181    0.0473    0.0566 O.3       1 <0>        -0.2990
      3 C2         -1.1774   -0.5987    0.0518 C.ar      1 <0>         0.1222
      4 C3         -2.3371    0.1256    0.0479 C.ar      1 <0>        -0.1517
      5 C4         -3.5659   -0.5404    0.0430 C.ar      1 <0>        -0.1525
      6 C5         -3.6000   -1.9602    0.0422 C.ar      1 <0>         0.1897
      7 C6         -2.3952   -2.6775    0.0463 C.ar      1 <0>        -0.1741
      8 C7         -1.2077   -2.0021    0.0452 C.ar      1 <0>         0.1602
      9 O2         -0.0410   -2.6977    0.0432 O.3       1 <0>        -0.2933
     10 C8         -0.1358   -4.1235    0.0365 C.3       1 <0>         0.0553
     11 C9          1.2697   -4.7281    0.0352 C.3       1 <0>        -0.1484
     12 C10         1.1682   -6.2547    0.0279 C.3       1 <0>        -0.0019
     13 N1          2.5177   -6.8352    0.0266 N.4       1 <0>        -0.3936
     14 C11         3.1877   -6.5767    1.3269 C.3       1 <0>        -0.0092
     15 C12         4.2810   -7.6728    1.3864 C.3       1 <0>        -0.1457
     16 C13         3.5803   -8.8950    0.7499 C.3       1 <0>        -0.1456
     17 C14         2.4398   -8.3066   -0.1013 C.3       1 <0>        -0.0082
     18 N2         -4.7891   -2.5744    0.0370 N.ar      1 <0>        -0.5150
     19 C15        -5.9017   -1.8765    0.0328 C.ar      1 <0>         0.3302
     20 N3         -5.9244   -0.5560    0.0333 N.ar      1 <0>        -0.5116
     21 C16        -4.8009    0.1580    0.0383 C.ar      1 <0>         0.3719
     22 N4         -4.8360    1.5184    0.0388 N.2       1 <0>        -0.3910
     23 C17        -4.7553    2.1726   -1.0850 C.2       1 <0>         0.1734
     24 C18        -4.6553    3.6889   -1.1313 C.3       1 <0>        -0.1080
     25 C19        -3.4986    4.0268   -2.0479 C.2       1 <0>         0.4019
     26 C20        -3.3042    3.2481   -3.2861 C.2       1 <0>         0.1146
     27 C21        -3.8877    2.0360   -3.4553 C.2       1 <0>        -0.2943
     28 C22        -4.7490    1.4812   -2.4041 C.2       1 <0>         0.3853
     29 O3         -5.4334    0.4957   -2.6060 O.2       1 <0>        -0.3979
     30 O4         -2.5284    3.7540   -4.2725 O.3       1 <0>        -0.2684
     31 C23        -2.3743    2.9581   -5.4494 C.3       1 <0>        -0.0084
     32 C24        -1.4704    3.6887   -6.4444 C.3       1 <0>         0.2752
     33 F1         -2.0478    4.9169   -6.7842 F         1 <0>        -0.1914
     34 F2         -0.2173    3.9078   -5.8622 F         1 <0>        -0.1939
     35 O5         -2.7418    4.9263   -1.7682 O.2       1 <0>        -0.3750
     36 H1          1.0020    1.8640    0.0665 H         1 <0>         0.1127
     37 H2         -0.5377    1.8308   -0.8259 H         1 <0>         0.0565
     38 H3         -0.5403    1.8225    0.9541 H         1 <0>         0.0633
     39 H4         -2.3039    1.2051    0.0489 H         1 <0>         0.1460
     40 H5         -2.4060   -3.7575    0.0457 H         1 <0>         0.1558
     41 H6         -0.6735   -4.4561    0.9243 H         1 <0>         0.0784
     42 H7         -0.6716   -4.4478   -0.8556 H         1 <0>         0.0784
     43 H8          1.8075   -4.3955   -0.8527 H         1 <0>         0.1003
     44 H9          1.8056   -4.4038    0.9272 H         1 <0>         0.1000
     45 H10         0.6305   -6.5873    0.9158 H         1 <0>         0.1341
     46 H11         0.6324   -6.5790   -0.8642 H         1 <0>         0.1347
     47 H12         3.6373   -5.5838    1.3372 H         1 <0>         0.1365
     48 H13         2.4839   -6.6901    2.1515 H         1 <0>         0.1348
     49 H14         5.1529   -7.3801    0.8013 H         1 <0>         0.0986
     50 H15         4.5608   -7.8829    2.4187 H         1 <0>         0.1173
     51 H16         4.2783   -9.4451    0.1188 H         1 <0>         0.1057
     52 H17         3.1765   -9.5459    1.5254 H         1 <0>         0.1043
     53 H18         1.4783   -8.6612    0.2700 H         1 <0>         0.1315
     54 H19         2.5677   -8.5959   -1.1444 H         1 <0>         0.1332
     55 H20        -6.8422   -2.4074    0.0282 H         1 <0>         0.2061
     56 H21        -5.5791    4.1108   -1.5271 H         1 <0>         0.1578
     57 H22        -3.7155    1.4767   -4.3631 H         1 <0>         0.1616
     58 H23        -1.9244    2.0013   -5.1846 H         1 <0>         0.1046
     59 H24        -3.3507    2.7874   -5.9030 H         1 <0>         0.1095
     60 H25        -1.3529    3.0817   -7.3420 H         1 <0>         0.1397
     61 H26        -4.4662    4.0801   -0.1317 H         1 <0>         0.1483
     62 H27         3.0625   -6.4485   -0.7295 H         1 <0>         0.4283
@<TRIPOS>BOND
     1    1    2 1
     2    1   36 1
     3    1   37 1
     4    1   38 1
     5    2    3 1
     6    3    8 ar
     7    3    4 ar
     8    4    5 ar
     9    4   39 1
    10    5   21 ar
    11    5    6 ar
    12    6    7 ar
    13    6   18 ar
    14    7    8 ar
    15    7   40 1
    16    8    9 1
    17    9   10 1
    18   10   11 1
    19   10   41 1
    20   10   42 1
    21   11   12 1
    22   11   43 1
    23   11   44 1
    24   12   13 1
    25   12   45 1
    26   12   46 1
    27   13   17 1
    28   13   14 1
    29   13   62 1
    30   14   15 1
    31   14   47 1
    32   14   48 1
    33   15   16 1
    34   15   49 1
    35   15   50 1
    36   16   17 1
    37   16   51 1
    38   16   52 1
    39   17   53 1
    40   17   54 1
    41   18   19 ar
    42   19   20 ar
    43   19   55 1
    44   20   21 ar
    45   21   22 1
    46   22   23 2
    47   23   28 1
    48   23   24 1
    49   24   56 1
    50   24   61 1
    51   24   25 1
    52   25   35 2
    53   25   26 1
    54   26   30 1
    55   26   27 2
    56   27   28 1
    57   27   57 1
    58   28   29 2
    59   30   31 1
    60   31   32 1
    61   31   58 1
    62   31   59 1
    63   32   33 1
    64   32   34 1
    65   32   60 1
@<TRIPOS>MOLECULE
CHEMBL413621
   65    69     0     0     0
SMALL
USER_CHARGES

@<TRIPOS>ATOM
      1 C1         -4.6690   -4.3714   -5.8814 C.3       1 <0>         0.0849
      2 N1         -4.0353   -4.2330   -4.5679 N.am      1 <0>        -0.7131
      3 C2         -2.9048   -4.9122   -4.2901 C.2       1 <0>         0.5707
      4 O1         -2.4112   -5.6394   -5.1292 O.2       1 <0>        -0.5315
      5 C3         -2.2639   -4.7722   -2.9614 C.ar      1 <0>         0.1119
      6 C4         -1.0942   -5.4717   -2.6834 C.ar      1 <0>        -0.1876
      7 C5         -0.5044   -5.3291   -1.4300 C.ar      1 <0>         0.1578
      8 C6         -1.1146   -4.4874   -0.5036 C.ar      1 <0>        -0.1741
      9 C7         -2.2771   -3.8252   -0.8541 C.ar      1 <0>         0.1363
     10 N2         -2.8085   -3.9757   -2.0489 N.ar      1 <0>        -0.4799
     11 O2          0.6369   -5.9944   -1.1188 O.3       1 <0>        -0.2407
     12 C8          1.1294   -6.8772   -2.0282 C.ar      1 <0>         0.0848
     13 C9          1.7875   -6.4092   -3.1614 C.ar      1 <0>        -0.1259
     14 C10         2.2912   -7.2917   -4.0897 C.ar      1 <0>        -0.0542
     15 C11         2.1417   -8.6671   -3.8945 C.ar      1 <0>         0.0830
     16 C12         1.4770   -9.1365   -2.7498 C.ar      1 <0>         0.0608
     17 C13         0.9787   -8.2371   -1.8195 C.ar      1 <0>        -0.0990
     18 N3          1.4882  -10.5187   -2.8372 N.pl3     1 <0>        -0.6118
     19 C14         2.1375  -10.8464   -3.9940 C.2       1 <0>         0.5334
     20 N4          2.5202   -9.7581   -4.6130 N.2       1 <0>        -0.5185
     21 N5          2.3572  -12.1335   -4.4432 N.pl3     1 <0>        -0.6423
     22 C15         3.1416  -12.3530   -5.5802 C.ar      1 <0>         0.1857
     23 C16         4.1124  -11.4288   -5.9449 C.ar      1 <0>        -0.1080
     24 C17         4.8853  -11.6480   -7.0680 C.ar      1 <0>        -0.0813
     25 C18         4.6935  -12.7873   -7.8301 C.ar      1 <0>        -0.0331
     26 C19         3.7272  -13.7096   -7.4691 C.ar      1 <0>        -0.0658
     27 C20         2.9551  -13.4981   -6.3435 C.ar      1 <0>        -0.1433
     28 C21         3.5209  -14.9486   -8.3017 C.3       1 <0>         0.1000
     29 N6          2.8147  -14.5945   -9.5401 N.3       1 <0>        -0.5293
     30 C22         1.4465  -14.1397   -9.2547 C.3       1 <0>         0.0237
     31 C23         0.7670  -13.7249  -10.5615 C.3       1 <0>        -0.0021
     32 N7          0.7389  -14.8682  -11.4833 N.4       1 <0>        -0.3879
     33 C24         2.1130  -15.2954  -11.7782 C.3       1 <0>        -0.0021
     34 C25         2.8038  -15.7232  -10.4814 C.3       1 <0>         0.0270
     35 C26         0.0704  -14.4747  -12.7308 C.3       1 <0>        -0.0456
     36 Cl1         5.6666  -13.0594   -9.2417 Cl        1 <0>        -0.0587
     37 H1         -3.9724   -4.0515   -6.6564 H         1 <0>         0.0632
     38 H2         -4.9412   -5.4141   -6.0454 H         1 <0>         0.0616
     39 H3         -5.5648   -3.7517   -5.9198 H         1 <0>         0.0813
     40 H4         -4.4293   -3.6525   -3.8980 H         1 <0>         0.4151
     41 H5         -0.6504   -6.1158   -3.4281 H         1 <0>         0.1547
     42 H6         -0.6850   -4.3535    0.4782 H         1 <0>         0.1536
     43 H7         -2.7537   -3.1718   -0.1383 H         1 <0>         0.1761
     44 H8          1.9035   -5.3463   -3.3138 H         1 <0>         0.1419
     45 H9          2.8006   -6.9219   -4.9673 H         1 <0>         0.1429
     46 H10         0.4710   -8.5966   -0.9367 H         1 <0>         0.1361
     47 H11         1.9676  -12.8854   -3.9702 H         1 <0>         0.4225
     48 H12         4.2623  -10.5394   -5.3508 H         1 <0>         0.1603
     49 H13         5.6400  -10.9296   -7.3521 H         1 <0>         0.1408
     50 H14         2.2041  -14.2205   -6.0597 H         1 <0>         0.1306
     51 H15         4.4884  -15.3864   -8.5476 H         1 <0>         0.1031
     52 H16         2.9282  -15.6699   -7.7390 H         1 <0>         0.0582
     53 H17         0.8827  -14.9502   -8.7928 H         1 <0>         0.0595
     54 H18         1.4808  -13.2873   -8.5761 H         1 <0>         0.1240
     55 H19        -0.2527  -13.4006  -10.3538 H         1 <0>         0.1345
     56 H20         1.3234  -12.9052  -11.0161 H         1 <0>         0.1385
     57 H21         2.0912  -16.1354  -12.4724 H         1 <0>         0.1357
     58 H22         2.6625  -14.4677  -12.2266 H         1 <0>         0.1384
     59 H23         3.8282  -16.0261  -10.6979 H         1 <0>         0.1246
     60 H24         2.2623  -16.5598  -10.0398 H         1 <0>         0.0608
     61 H25         0.6154  -13.6504  -13.1907 H         1 <0>         0.1233
     62 H26         0.0495  -15.3230  -13.4150 H         1 <0>         0.1240
     63 H27        -0.9497  -14.1589  -12.5123 H         1 <0>         0.1236
     64 H28         0.2339  -15.6309  -11.0576 H         1 <0>         0.4216
     65 H29         1.1065  -11.1388   -2.1964 H         1 <0>         0.4255
@<TRIPOS>BOND
     1    1    2 1
     2    1   37 1
     3    1   38 1
     4    1   39 1
     5    2    3 am
     6    2   40 1
     7    3    4 2
     8    3    5 1
     9    5   10 ar
    10    5    6 ar
    11    6    7 ar
    12    6   41 1
    13    7    8 ar
    14    7   11 1
    15    8    9 ar
    16    8   42 1
    17    9   10 ar
    18    9   43 1
    19   11   12 1
    20   12   17 ar
    21   12   13 ar
    22   13   14 ar
    23   13   44 1
    24   14   15 ar
    25   14   45 1
    26   15   20 1
    27   15   16 ar
    28   16   17 ar
    29   16   18 1
    30   17   46 1
    31   18   19 1
    32   18   65 1
    33   19   20 2
    34   19   21 1
    35   21   22 1
    36   21   47 1
    37   22   27 ar
    38   22   23 ar
    39   23   24 ar
    40   23   48 1
    41   24   25 ar
    42   24   49 1
    43   25   26 ar
    44   25   36 1
    45   26   27 ar
    46   26   28 1
    47   27   50 1
    48   28   29 1
    49   28   51 1
    50   28   52 1
    51   29   34 1
    52   29   30 1
    53   30   31 1
    54   30   53 1
    55   30   54 1
    56   31   32 1
    57   31   55 1
    58   31   56 1
    59   32   33 1
    60   32   35 1
    61   32   64 1
    62   33   34 1
    63   33   57 1
    64   33   58 1
    65   34   59 1
    66   34   60 1
    67   35   61 1
    68   35   62 1
    69   35   63 1
@<TRIPOS>MOLECULE
CHEMBL413621__1
   65    69     0     0     0
SMALL
USER_CHARGES

@<TRIPOS>ATOM
      1 C1          9.6713   -9.1767   -2.1564 C.3       1 <0>         0.0848
      2 N1          8.5341   -8.2764   -2.3625 N.am      1 <0>        -0.7132
      3 C2          7.5349   -8.2351   -1.4589 C.2       1 <0>         0.5702
      4 O1          7.5774   -8.9446   -0.4733 O.2       1 <0>        -0.5307
      5 C3          6.3847   -7.3245   -1.6673 C.ar      1 <0>         0.1127
      6 C4          5.3597   -7.2828   -0.7278 C.ar      1 <0>        -0.1864
      7 C5          4.2861   -6.4213   -0.9384 C.ar      1 <0>         0.1581
      8 C6          4.2849   -5.6341   -2.0870 C.ar      1 <0>        -0.1745
      9 C7          5.3407   -5.7316   -2.9751 C.ar      1 <0>         0.1359
     10 N2          6.3444   -6.5517   -2.7466 N.ar      1 <0>        -0.4803
     11 O2          3.2657   -6.3509   -0.0461 O.3       1 <0>        -0.2405
     12 C8          3.3303   -7.1377    1.0608 C.ar      1 <0>         0.0759
     13 C9          3.6888   -6.5816    2.2850 C.ar      1 <0>        -0.1042
     14 C10         3.7576   -7.3687    3.4153 C.ar      1 <0>        -0.0847
     15 C11         3.4682   -8.7225    3.3342 C.ar      1 <0>         0.0545
     16 C12         3.1056   -9.2916    2.1025 C.ar      1 <0>         0.0909
     17 C13         3.0340   -8.4836    0.9649 C.ar      1 <0>        -0.0813
     18 N3          2.8832  -10.6139    2.3227 N.2       1 <0>        -0.5198
     19 C14         3.0823  -10.8894    3.5876 C.2       1 <0>         0.5349
     20 N4          3.4456   -9.7567    4.2579 N.pl3     1 <0>        -0.6124
     21 H1          3.6502   -9.6882    5.2036 H         1 <0>         0.4253
     22 N5          2.9447  -12.1387    4.1582 N.pl3     1 <0>        -0.6429
     23 C15         2.6907  -13.2521    3.3507 C.ar      1 <0>         0.1809
     24 C16         2.0035  -13.1009    2.1530 C.ar      1 <0>        -0.1077
     25 C17         1.7541  -14.2018    1.3578 C.ar      1 <0>        -0.0841
     26 C18         2.1880  -15.4553    1.7532 C.ar      1 <0>        -0.0307
     27 C19         2.8723  -15.6089    2.9459 C.ar      1 <0>        -0.0684
     28 C20         3.1300  -14.5100    3.7422 C.ar      1 <0>        -0.1406
     29 C21         3.3428  -16.9752    3.3734 C.3       1 <0>         0.1000
     30 N6          2.1971  -17.7597    3.8531 N.3       1 <0>        -0.5293
     31 C22         1.6445  -17.1841    5.0873 C.3       1 <0>         0.0236
     32 C23         0.4198  -17.9932    5.5201 C.3       1 <0>        -0.0020
     33 N7          0.8105  -19.3913    5.7437 N.4       1 <0>        -0.3879
     34 C24         1.3376  -19.9597    4.4961 C.3       1 <0>        -0.0021
     35 C25         2.5699  -19.1670    4.0548 C.3       1 <0>         0.0267
     36 C26        -0.3616  -20.1638    6.1766 C.3       1 <0>        -0.0457
     37 Cl1         1.8726  -16.8373    0.7511 Cl        1 <0>        -0.0590
     38 H2          9.3160  -10.2061   -2.1095 H         1 <0>         0.0622
     39 H3         10.3725   -9.0717   -2.9843 H         1 <0>         0.0812
     40 H4         10.1716   -8.9221   -1.2221 H         1 <0>         0.0626
     41 H5          8.5002   -7.7101   -3.1492 H         1 <0>         0.4147
     42 H6          5.3959   -7.9092    0.1512 H         1 <0>         0.1528
     43 H7          3.4681   -4.9551   -2.2825 H         1 <0>         0.1535
     44 H8          5.3433   -5.1231   -3.8673 H         1 <0>         0.1757
     45 H9          3.9149   -5.5275    2.3503 H         1 <0>         0.1450
     46 H10         4.0368   -6.9314    4.3625 H         1 <0>         0.1368
     47 H11         2.7522   -8.9104    0.0137 H         1 <0>         0.1403
     48 H12         3.0243  -12.2444    5.1191 H         1 <0>         0.4212
     49 H13         1.6644  -12.1231    1.8442 H         1 <0>         0.1674
     50 H14         1.2195  -14.0849    0.4267 H         1 <0>         0.1405
     51 H15         3.6686  -14.6297    4.6706 H         1 <0>         0.1305
     52 H16         3.8014  -17.4834    2.5251 H         1 <0>         0.1032
     53 H17         4.0745  -16.8733    4.1748 H         1 <0>         0.0586
     54 H18         2.3987  -17.2172    5.8736 H         1 <0>         0.0599
     55 H19         1.3518  -16.1497    4.9070 H         1 <0>         0.1231
     56 H20         0.0168  -17.5765    6.4432 H         1 <0>         0.1342
     57 H21        -0.3396  -17.9485    4.7395 H         1 <0>         0.1380
     58 H22         1.6149  -21.0010    4.6599 H         1 <0>         0.1359
     59 H23         0.5735  -19.9050    3.7206 H         1 <0>         0.1384
     60 H24         2.9523  -19.5793    3.1211 H         1 <0>         0.1248
     61 H25         3.3393  -19.2328    4.8240 H         1 <0>         0.0611
     62 H26        -1.1306  -20.1201    5.4053 H         1 <0>         0.1232
     63 H27        -0.0719  -21.2014    6.3426 H         1 <0>         0.1242
     64 H28        -0.7521  -19.7429    7.1031 H         1 <0>         0.1235
     65 H29         1.5218  -19.4314    6.4582 H         1 <0>         0.4217
@<TRIPOS>BOND
     1    1    2 1
     2    1   38 1
     3    1   39 1
     4    1   40 1
     5    2    3 am
     6    2   41 1
     7    3    4 2
     8    3    5 1
     9    5   10 ar
    10    5    6 ar
    11    6    7 ar
    12    6   42 1
    13    7    8 ar
    14    7   11 1
    15    8    9 ar
    16    8   43 1
    17    9   10 ar
    18    9   44 1
    19   11   12 1
    20   12   17 ar
    21   12   13 ar
    22   13   14 ar
    23   13   45 1
    24   14   15 ar
    25   14   46 1
    26   15   20 1
    27   15   16 ar
    28   16   17 ar
    29   16   18 1
    30   17   47 1
    31   18   19 2
    32   19   20 1
    33   19   22 1
    34   20   21 1
    35   22   23 1
    36   22   48 1
    37   23   28 ar
    38   23   24 ar
    39   24   25 ar
    40   24   49 1
    41   25   26 ar
    42   25   50 1
    43   26   27 ar
    44   26   37 1
    45   27   28 ar
    46   27   29 1
    47   28   51 1
    48   29   30 1
    49   29   52 1
    50   29   53 1
    51   30   35 1
    52   30   31 1
    53   31   32 1
    54   31   54 1
    55   31   55 1
    56   32   33 1
    57   32   56 1
    58   32   57 1
    59   33   34 1
    60   33   36 1
    61   33   65 1
    62   34   35 1
    63   34   58 1
    64   34   59 1
    65   35   60 1
    66   35   61 1
    67   36   62 1
    68   36   63 1
    69   36   64 1
@<TRIPOS>MOLECULE
CHEMBL244297
   56    60     0     0     0
SMALL
USER_CHARGES

@<TRIPOS>ATOM
      1 C1         14.1630   10.1373   -5.4682 C.2       1 <0>        -0.2279
      2 C2         13.9440    8.7647   -5.2643 C.2       1 <0>        -0.1300
      3 C3         13.4804    8.6265   -3.9892 C.2       1 <0>        -0.0455
      4 O1         13.4160    9.8530   -3.4326 O.3       1 <0>        -0.1460
      5 C4         13.8270   10.7674   -4.3218 C.2       1 <0>        -0.0078
      6 C5         13.1145    7.3607   -3.3354 C.2       1 <0>         0.5907
      7 O2         13.2158    6.3083   -3.9439 O.2       1 <0>        -0.5652
      8 N1         12.6696    7.3636   -2.0708 N.2       1 <0>        -0.6522
      9 C6         12.2444    6.2368   -1.5147 C.2       1 <0>         0.6585
     10 N2         12.3094    5.0023   -2.0844 N.pl3     1 <0>        -0.6090
     11 H1         12.6727    4.7993   -2.9606 H         1 <0>         0.4525
     12 C7         11.7661    4.0813   -1.1941 C.ar      1 <0>         0.0969
     13 C8         11.5799    2.7080   -1.2515 C.ar      1 <0>        -0.1174
     14 C9         10.9973    2.0460   -0.1828 C.ar      1 <0>         0.1045
     15 C10        10.5995    2.7543    0.9440 C.ar      1 <0>        -0.1030
     16 C11        10.7826    4.1211    1.0062 C.ar      1 <0>        -0.0791
     17 C12        11.3657    4.7911   -0.0597 C.ar      1 <0>         0.0866
     18 N3         11.6791    6.1304   -0.2816 N.pl3     1 <0>        -0.5871
     19 O3         10.8140    0.7001   -0.2373 O.3       1 <0>        -0.2490
     20 C13        11.9005   -0.0994   -0.0677 C.ar      1 <0>         0.1081
     21 C14        11.7468   -1.4775   -0.0205 C.ar      1 <0>        -0.1187
     22 C15        12.8499   -2.2899    0.1518 C.ar      1 <0>        -0.0783
     23 C16        14.1132   -1.7276    0.2774 C.ar      1 <0>         0.1298
     24 C17        14.2665   -0.3484    0.2296 C.ar      1 <0>        -0.1022
     25 C18        13.1632    0.4629    0.0525 C.ar      1 <0>        -0.1743
     26 N4         15.2329   -2.5516    0.4527 N.am      1 <0>        -0.6754
     27 C19        15.2858   -3.7546   -0.1527 C.2       1 <0>         0.7078
     28 O4         14.4097   -4.0835   -0.9291 O.2       1 <0>        -0.5494
     29 N5         16.3097   -4.5930    0.1024 N.am      1 <0>        -0.6745
     30 C20        16.4090   -5.8077   -0.5879 C.ar      1 <0>         0.1339
     31 C21        15.2704   -6.4066   -1.1090 C.ar      1 <0>        -0.0605
     32 C22        15.3712   -7.6047   -1.7894 C.ar      1 <0>        -0.1727
     33 C23        16.6045   -8.2086   -1.9519 C.ar      1 <0>        -0.0594
     34 C24        17.7416   -7.6160   -1.4346 C.ar      1 <0>        -0.1305
     35 C25        17.6489   -6.4134   -0.7577 C.ar      1 <0>         0.1006
     36 F1         18.7606   -5.8311   -0.2574 F         1 <0>        -0.1279
     37 C26        14.1349   -8.2548   -2.3551 C.3       1 <0>         0.5128
     38 F2         13.9245   -7.7993   -3.6610 F         1 <0>        -0.1721
     39 F3         14.3023   -9.6437   -2.3670 F         1 <0>        -0.1747
     40 F4         13.0303   -7.9250   -1.5625 F         1 <0>        -0.1728
     41 H2         14.5345   10.6008   -6.3701 H         1 <0>         0.1567
     42 H3         14.1103    7.9723   -5.9791 H         1 <0>         0.1584
     43 H4         13.8808   11.8323   -4.1502 H         1 <0>         0.2106
     44 H5         11.5195    6.8614    0.3358 H         1 <0>         0.4493
     45 H6         11.8880    2.1560   -2.1272 H         1 <0>         0.1450
     46 H7         10.1452    2.2339    1.7742 H         1 <0>         0.1507
     47 H8         10.4718    4.6686    1.8837 H         1 <0>         0.1482
     48 H9         10.7641   -1.9148   -0.1182 H         1 <0>         0.1404
     49 H10        12.7301   -3.3626    0.1892 H         1 <0>         0.1444
     50 H11        15.2488    0.0895    0.3276 H         1 <0>         0.1310
     51 H12        13.2828    1.5354    0.0116 H         1 <0>         0.1341
     52 H13        15.9700   -2.2562    1.0098 H         1 <0>         0.4109
     53 H14        16.9780   -4.3551    0.7641 H         1 <0>         0.4162
     54 H15        14.3064   -5.9366   -0.9824 H         1 <0>         0.1794
     55 H16        16.6796   -9.1456   -2.4837 H         1 <0>         0.1497
     56 H17        18.7033   -8.0903   -1.5629 H         1 <0>         0.1550
@<TRIPOS>BOND
     1    1    5 2
     2    1    2 1
     3    1   41 1
     4    2    3 2
     5    2   42 1
     6    3    4 1
     7    3    6 1
     8    4    5 1
     9    5   43 1
    10    6    7 2
    11    6    8 1
    12    8    9 2
    13    9   18 1
    14    9   10 1
    15   10   12 1
    16   10   11 1
    17   12   13 ar
    18   12   17 ar
    19   13   14 ar
    20   13   45 1
    21   14   15 ar
    22   14   19 1
    23   15   16 ar
    24   15   46 1
    25   16   17 ar
    26   16   47 1
    27   17   18 1
    28   18   44 1
    29   19   20 1
    30   20   25 ar
    31   20   21 ar
    32   21   22 ar
    33   21   48 1
    34   22   23 ar
    35   22   49 1
    36   23   24 ar
    37   23   26 1
    38   24   25 ar
    39   24   50 1
    40   25   51 1
    41   26   27 am
    42   26   52 1
    43   27   28 2
    44   27   29 am
    45   29   30 1
    46   29   53 1
    47   30   35 ar
    48   30   31 ar
    49   31   32 ar
    50   31   54 1
    51   32   33 ar
    52   32   37 1
    53   33   34 ar
    54   33   55 1
    55   34   35 ar
    56   34   56 1
    57   35   36 1
    58   37   38 1
    59   37   39 1
    60   37   40 1
@<TRIPOS>MOLECULE
CHEMBL244297__1
   56    60     0     0     0
SMALL
USER_CHARGES

@<TRIPOS>ATOM
      1 C1         12.7552  -13.4776    2.2131 C.2       1 <0>        -0.2281
      2 C2         12.3370  -12.5477    1.2467 C.2       1 <0>        -0.1299
      3 C3         12.4679  -11.3120    1.8087 C.2       1 <0>        -0.0456
      4 O1         12.9435  -11.4704    3.0606 O.3       1 <0>        -0.1460
      5 C4         13.1182  -12.7757    3.3083 C.2       1 <0>        -0.0077
      6 C5         12.1465  -10.0304    1.1623 C.2       1 <0>         0.5912
      7 O2         11.7204  -10.0137    0.0194 O.2       1 <0>        -0.5658
      8 N1         12.3219   -8.8808    1.8291 N.2       1 <0>        -0.6524
      9 C6         12.1291   -7.7213    1.2142 C.2       1 <0>         0.6586
     10 N2         12.3764   -6.4941    1.7489 N.pl3     1 <0>        -0.5873
     11 H1         12.7215   -6.3211    2.6387 H         1 <0>         0.4490
     12 C7         12.0500   -5.5305    0.7997 C.ar      1 <0>         0.1007
     13 C8         12.1019   -4.1444    0.8038 C.ar      1 <0>        -0.1156
     14 C9         11.7015   -3.4362   -0.3178 C.ar      1 <0>         0.1025
     15 C10        11.2485   -4.1109   -1.4444 C.ar      1 <0>        -0.1008
     16 C11        11.1948   -5.4903   -1.4536 C.ar      1 <0>        -0.0810
     17 C12        11.5945   -6.2065   -0.3345 C.ar      1 <0>         0.0832
     18 N3         11.6584   -7.5696   -0.0534 N.pl3     1 <0>        -0.6085
     19 O3         11.7518   -2.0777   -0.3156 O.3       1 <0>        -0.2485
     20 C13        12.9680   -1.4838   -0.4438 C.ar      1 <0>         0.1080
     21 C14        13.0584   -0.1028   -0.5423 C.ar      1 <0>        -0.1188
     22 C15        14.2934    0.5010   -0.6725 C.ar      1 <0>        -0.0782
     23 C16        15.4449   -0.2741   -0.7045 C.ar      1 <0>         0.1298
     24 C17        15.3539   -1.6561   -0.6054 C.ar      1 <0>        -0.1023
     25 C18        14.1187   -2.2585   -0.4704 C.ar      1 <0>        -0.1745
     26 N4         16.6984    0.3380   -0.8371 N.am      1 <0>        -0.6755
     27 C19        16.9262    1.5376   -0.2666 C.2       1 <0>         0.7078
     28 O4         16.0797    2.0430    0.4452 O.2       1 <0>        -0.5496
     29 N5         18.0923    2.1771   -0.4849 N.am      1 <0>        -0.6745
     30 C20        18.3633    3.3837    0.1728 C.ar      1 <0>         0.1338
     31 C21        17.3194    4.1895    0.6059 C.ar      1 <0>        -0.0606
     32 C22        17.5895    5.3791    1.2543 C.ar      1 <0>        -0.1726
     33 C23        18.8982    5.7687    1.4723 C.ar      1 <0>        -0.0593
     34 C24        19.9416    4.9696    1.0427 C.ar      1 <0>        -0.1306
     35 C25        19.6785    3.7743    0.3984 C.ar      1 <0>         0.1006
     36 F1         20.6977    2.9904   -0.0161 F         1 <0>        -0.1279
     37 C26        16.4559    6.2538    1.7245 C.3       1 <0>         0.5128
     38 F2         16.0994    5.8942    3.0287 F         1 <0>        -0.1722
     39 F3         16.8607    7.5928    1.7041 F         1 <0>        -0.1746
     40 F4         15.3553    6.0863    0.8772 F         1 <0>        -0.1727
     41 H2         12.7778  -14.5517    2.1027 H         1 <0>         0.1567
     42 H3         11.9811  -12.7686    0.2512 H         1 <0>         0.1585
     43 H4         13.4881  -13.1969    4.2315 H         1 <0>         0.2105
     44 H5         11.4081   -8.2868   -0.6565 H         1 <0>         0.4527
     45 H6         12.4533   -3.6184    1.6792 H         1 <0>         0.1464
     46 H7         10.9368   -3.5544   -2.3159 H         1 <0>         0.1501
     47 H8         10.8417   -6.0115   -2.3311 H         1 <0>         0.1470
     48 H9         12.1626    0.5001   -0.5174 H         1 <0>         0.1404
     49 H10        14.3636    1.5759   -0.7499 H         1 <0>         0.1443
     50 H11        16.2492   -2.2595   -0.6305 H         1 <0>         0.1310
     51 H12        14.0481   -3.3331   -0.3895 H         1 <0>         0.1344
     52 H13        17.4021   -0.1016   -1.3395 H         1 <0>         0.4110
     53 H14        18.7440    1.8017   -1.0976 H         1 <0>         0.4162
     54 H15        16.2967    3.8869    0.4358 H         1 <0>         0.1794
     55 H16        19.1059    6.6997    1.9788 H         1 <0>         0.1497
     56 H17        20.9626    5.2769    1.2141 H         1 <0>         0.1550
@<TRIPOS>BOND
     1    1    5 2
     2    1    2 1
     3    1   41 1
     4    2    3 2
     5    2   42 1
     6    3    4 1
     7    3    6 1
     8    4    5 1
     9    5   43 1
    10    6    7 2
    11    6    8 1
    12    8    9 2
    13    9   18 1
    14    9   10 1
    15   10   12 1
    16   10   11 1
    17   12   13 ar
    18   12   17 ar
    19   13   14 ar
    20   13   45 1
    21   14   15 ar
    22   14   19 1
    23   15   16 ar
    24   15   46 1
    25   16   17 ar
    26   16   47 1
    27   17   18 1
    28   18   44 1
    29   19   20 1
    30   20   25 ar
    31   20   21 ar
    32   21   22 ar
    33   21   48 1
    34   22   23 ar
    35   22   49 1
    36   23   24 ar
    37   23   26 1
    38   24   25 ar
    39   24   50 1
    40   25   51 1
    41   26   27 am
    42   26   52 1
    43   27   28 2
    44   27   29 am
    45   29   30 1
    46   29   53 1
    47   30   35 ar
    48   30   31 ar
    49   31   32 ar
    50   31   54 1
    51   32   33 ar
    52   32   37 1
    53   33   34 ar
    54   33   55 1
    55   34   35 ar
    56   34   56 1
    57   35   36 1
    58   37   38 1
    59   37   39 1
    60   37   40 1
@<TRIPOS>MOLECULE
CHEMBL231269
   67    71     0     0     0
SMALL
USER_CHARGES

@<TRIPOS>ATOM
      1 C1          9.7008   -8.6513   -2.9256 C.3       1 <0>         0.0844
      2 N1          8.4298   -7.9385   -3.0765 N.am      1 <0>        -0.7128
      3 C2          7.4987   -8.0080   -2.1046 C.2       1 <0>         0.5695
      4 O1          7.7134   -8.6620   -1.1032 O.2       1 <0>        -0.5300
      5 C3          6.2131   -7.2871   -2.2572 C.ar      1 <0>         0.1134
      6 C4          5.2589   -7.3586   -1.2477 C.ar      1 <0>        -0.1879
      7 C5          4.0559   -6.6753   -1.4067 C.ar      1 <0>         0.1572
      8 C6          3.8591   -5.9456   -2.5762 C.ar      1 <0>        -0.1741
      9 C7          4.8556   -5.9225   -3.5349 C.ar      1 <0>         0.1364
     10 N2          5.9848   -6.5742   -3.3541 N.ar      1 <0>        -0.4794
     11 O2          3.0987   -6.7197   -0.4455 O.3       1 <0>        -0.2411
     12 C8          3.3082   -7.5287    0.6271 C.ar      1 <0>         0.0893
     13 C9          4.1994   -7.1413    1.6231 C.ar      1 <0>        -0.1262
     14 C10         4.4209   -7.9506    2.7142 C.ar      1 <0>        -0.0503
     15 C11         3.7468   -9.1694    2.8242 C.ar      1 <0>         0.0802
     16 C12         2.8476   -9.5576    1.8177 C.ar      1 <0>         0.0640
     17 C13         2.6297   -8.7310    0.7259 C.ar      1 <0>        -0.1005
     18 N3          2.3457  -10.7895    2.2034 N.pl3     1 <0>        -0.6087
     19 C14         2.9317  -11.1107    3.3952 C.2       1 <0>         0.5257
     20 N4          3.7537  -10.1585    3.7578 N.2       1 <0>        -0.5108
     21 N5          2.6925  -12.2674    4.1107 N.pl3     1 <0>        -0.6393
     22 C15         3.2562  -12.4339    5.3791 C.ar      1 <0>         0.2567
     23 C16         3.5803  -11.3225    6.1479 C.ar      1 <0>        -0.1551
     24 C17         4.1367  -11.4872    7.4012 C.ar      1 <0>        -0.0036
     25 C18         4.3732  -12.7568    7.8939 C.ar      1 <0>        -0.2353
     26 C19         4.0516  -13.8703    7.1307 C.ar      1 <0>         0.1957
     27 C20         3.4877  -13.7095    5.8747 C.ar      1 <0>        -0.2492
     28 O3          4.2851  -15.1179    7.6165 O.3       1 <0>        -0.3170
     29 C21         3.9295  -16.2181    6.7768 C.3       1 <0>         0.0346
     30 C22         4.2637  -17.5311    7.4876 C.3       1 <0>         0.0309
     31 H1          4.0922  -18.3767    6.8215 H         1 <0>         0.1602
     32 C23         5.7330  -17.5201    7.9780 C.3       1 <0>        -0.1395
     33 C24         5.6828  -18.5453    9.1413 C.3       1 <0>        -0.1398
     34 C25         4.2882  -18.3047    9.7567 C.3       1 <0>        -0.0114
     35 N6          3.4539  -17.6715    8.7166 N.4       1 <0>        -0.3935
     36 C26         2.2800  -18.5108    8.4420 C.3       1 <0>        -0.0474
     37 C27         4.9814  -12.9319    9.2615 C.3       1 <0>         0.5204
     38 F1          5.2160  -11.6762    9.8319 F         1 <0>        -0.1714
     39 F2          4.1021  -13.6561   10.0737 F         1 <0>        -0.1829
     40 F3          6.1908  -13.6261    9.1486 F         1 <0>        -0.1753
     41 H2          9.5084   -9.7191   -2.8212 H         1 <0>         0.0623
     42 H3         10.3211   -8.4781   -3.8050 H         1 <0>         0.0814
     43 H4         10.2186   -8.2869   -2.0383 H         1 <0>         0.0638
     44 H5          8.2584   -7.4165   -3.8759 H         1 <0>         0.4147
     45 H6          5.4479   -7.9355   -0.3544 H         1 <0>         0.1548
     46 H7          2.9381   -5.4038   -2.7331 H         1 <0>         0.1535
     47 H8          4.7067   -5.3581   -4.4436 H         1 <0>         0.1762
     48 H9          4.7211   -6.1993    1.5393 H         1 <0>         0.1434
     49 H10         5.1144   -7.6443    3.4833 H         1 <0>         0.1448
     50 H11         1.9355   -9.0262   -0.0469 H         1 <0>         0.1370
     51 H12         2.1334  -12.9644    3.7332 H         1 <0>         0.4242
     52 H13         3.3972  -10.3294    5.7649 H         1 <0>         0.1672
     53 H14         4.3879  -10.6223    7.9972 H         1 <0>         0.1553
     54 H15         3.2331  -14.5750    5.2811 H         1 <0>         0.1410
     55 H16         2.8612  -16.1820    6.5636 H         1 <0>         0.0906
     56 H17         4.4885  -16.1580    5.8430 H         1 <0>         0.1145
     57 H18         6.4096  -17.8547    7.1916 H         1 <0>         0.1189
     58 H19         6.0163  -16.5319    8.3403 H         1 <0>         0.1116
     59 H20         5.7660  -19.5635    8.7615 H         1 <0>         0.0994
     60 H21         6.4665  -18.3395    9.8704 H         1 <0>         0.1153
     61 H22         3.8464  -19.2549   10.0567 H         1 <0>         0.1337
     62 H23         4.3726  -17.6438   10.6193 H         1 <0>         0.1332
     63 H24         2.6074  -19.4961    8.1101 H         1 <0>         0.1241
     64 H25         1.6854  -18.6122    9.3499 H         1 <0>         0.1261
     65 H26         1.6761  -18.0468    7.6621 H         1 <0>         0.1201
     66 H27         3.1530  -16.7612    9.0309 H         1 <0>         0.4310
     67 H28         1.6984  -11.3246    1.7180 H         1 <0>         0.4260
@<TRIPOS>BOND
     1    1    2 1
     2    1   41 1
     3    1   42 1
     4    1   43 1
     5    2    3 am
     6    2   44 1
     7    3    4 2
     8    3    5 1
     9    5   10 ar
    10    5    6 ar
    11    6    7 ar
    12    6   45 1
    13    7    8 ar
    14    7   11 1
    15    8    9 ar
    16    8   46 1
    17    9   10 ar
    18    9   47 1
    19   11   12 1
    20   12   17 ar
    21   12   13 ar
    22   13   14 ar
    23   13   48 1
    24   14   15 ar
    25   14   49 1
    26   15   20 1
    27   15   16 ar
    28   16   17 ar
    29   16   18 1
    30   17   50 1
    31   18   19 1
    32   18   67 1
    33   19   20 2
    34   19   21 1
    35   21   22 1
    36   21   51 1
    37   22   27 ar
    38   22   23 ar
    39   23   24 ar
    40   23   52 1
    41   24   25 ar
    42   24   53 1
    43   25   26 ar
    44   25   37 1
    45   26   27 ar
    46   26   28 1
    47   27   54 1
    48   28   29 1
    49   29   30 1
    50   29   55 1
    51   29   56 1
    52   30   31 1
    53   30   35 1
    54   30   32 1
    55   32   33 1
    56   32   57 1
    57   32   58 1
    58   33   34 1
    59   33   59 1
    60   33   60 1
    61   34   35 1
    62   34   61 1
    63   34   62 1
    64   35   36 1
    65   35   66 1
    66   36   63 1
    67   36   64 1
    68   36   65 1
    69   37   38 1
    70   37   39 1
    71   37   40 1
@<TRIPOS>MOLECULE
CHEMBL231269__1
   67    71     0     0     0
SMALL
USER_CHARGES

@<TRIPOS>ATOM
      1 C1         -3.0025   -9.3304    9.3312 C.3       1 <0>         0.0851
      2 N1         -2.2361   -8.4265    8.4700 N.am      1 <0>        -0.7130
      3 C2         -2.5002   -8.3684    7.1497 C.2       1 <0>         0.5713
      4 O1         -3.3741   -9.0657    6.6736 O.2       1 <0>        -0.5328
      5 C3         -1.7250   -7.4541    6.2786 C.ar      1 <0>         0.1118
      6 C4         -2.0067   -7.3949    4.9177 C.ar      1 <0>        -0.1863
      7 C5         -1.2693   -6.5301    4.1130 C.ar      1 <0>         0.1581
      8 C6         -0.2759   -5.7574    4.7088 C.ar      1 <0>        -0.1734
      9 C7         -0.0546   -5.8719    6.0692 C.ar      1 <0>         0.1364
     10 N2         -0.7713   -6.6946    6.8052 N.ar      1 <0>        -0.4801
     11 O2         -1.5126   -6.4429    2.7805 O.3       1 <0>        -0.2402
     12 C8         -2.4871   -7.2331    2.2565 C.ar      1 <0>         0.0765
     13 C9         -3.7353   -6.6911    1.9654 C.ar      1 <0>        -0.1017
     14 C10        -4.7324   -7.4820    1.4341 C.ar      1 <0>        -0.0851
     15 C11        -4.4922   -8.8252    1.1871 C.ar      1 <0>         0.0572
     16 C12        -3.2350   -9.3798    1.4775 C.ar      1 <0>         0.0883
     17 C13        -2.2307   -8.5681    2.0108 C.ar      1 <0>        -0.0784
     18 N3         -3.2894  -10.6944    1.1377 N.2       1 <0>        -0.5142
     19 C14        -4.4777  -10.9784    0.6655 C.2       1 <0>         0.5289
     20 N4         -5.2602   -9.8595    0.6738 N.pl3     1 <0>        -0.6094
     21 H1         -6.1814   -9.7993    0.3760 H         1 <0>         0.4265
     22 N5         -4.8792  -12.2236    0.2254 N.pl3     1 <0>        -0.6406
     23 C15        -4.0361  -13.3272    0.3862 C.ar      1 <0>         0.2518
     24 C16        -2.6573  -13.1541    0.3941 C.ar      1 <0>        -0.1538
     25 C17        -1.8246  -14.2444    0.5535 C.ar      1 <0>        -0.0063
     26 C18        -2.3598  -15.5098    0.7050 C.ar      1 <0>        -0.2325
     27 C19        -3.7359  -15.6887    0.6979 C.ar      1 <0>         0.1927
     28 C20        -4.5752  -14.5963    0.5439 C.ar      1 <0>        -0.2457
     29 O3         -4.2605  -16.9335    0.8465 O.3       1 <0>        -0.3172
     30 C21        -5.6851  -17.0434    0.8295 C.3       1 <0>         0.0345
     31 C22        -6.0857  -18.5091    1.0092 C.3       1 <0>         0.0310
     32 H2         -7.1640  -18.6234    0.8979 H         1 <0>         0.1602
     33 C23        -5.3403  -19.4013   -0.0144 C.3       1 <0>        -0.1392
     34 C24        -5.3611  -20.7795    0.6975 C.3       1 <0>        -0.1397
     35 C25        -5.2074  -20.4040    2.1864 C.3       1 <0>        -0.0115
     36 N6         -5.6496  -19.0033    2.3326 N.4       1 <0>        -0.3937
     37 C26        -6.7695  -18.9320    3.2806 C.3       1 <0>        -0.0476
     38 C27        -1.4476  -16.6969    0.8777 C.3       1 <0>         0.5201
     39 F1         -0.1158  -16.2693    0.8513 F         1 <0>        -0.1713
     40 F2         -1.7145  -17.3157    2.1037 F         1 <0>        -0.1823
     41 F3         -1.6656  -17.6076   -0.1616 F         1 <0>        -0.1756
     42 H3         -2.6497   -9.2397   10.3585 H         1 <0>         0.0814
     43 H4         -4.0592   -9.0670    9.2854 H         1 <0>         0.0625
     44 H5         -2.8689  -10.3572    8.9905 H         1 <0>         0.0614
     45 H6         -1.5385   -7.8698    8.8501 H         1 <0>         0.4152
     46 H7         -2.7852   -8.0105    4.4917 H         1 <0>         0.1522
     47 H8          0.3156   -5.0763    4.1149 H         1 <0>         0.1541
     48 H9          0.7152   -5.2746    6.5351 H         1 <0>         0.1761
     49 H10        -3.9245   -5.6452    2.1571 H         1 <0>         0.1460
     50 H11        -5.6993   -7.0557    1.2110 H         1 <0>         0.1379
     51 H12        -1.2590   -8.9835    2.2337 H         1 <0>         0.1416
     52 H13        -5.7462  -12.3329   -0.1955 H         1 <0>         0.4248
     53 H14        -2.2366  -12.1666    0.2752 H         1 <0>         0.1734
     54 H15        -0.7533  -14.1081    0.5594 H         1 <0>         0.1551
     55 H16        -5.6465  -14.7331    0.5423 H         1 <0>         0.1410
     56 H17        -6.1051  -16.4498    1.6415 H         1 <0>         0.0908
     57 H18        -6.0665  -16.6768   -0.1235 H         1 <0>         0.1141
     58 H19        -5.8788  -19.4428   -0.9612 H         1 <0>         0.1187
     59 H20        -4.3179  -19.0541   -0.1634 H         1 <0>         0.1114
     60 H21        -6.3092  -21.2886    0.5243 H         1 <0>         0.0995
     61 H22        -4.5252  -21.3964    0.3675 H         1 <0>         0.1152
     62 H23        -5.8319  -21.0542    2.7992 H         1 <0>         0.1338
     63 H24        -4.1639  -20.4979    2.4868 H         1 <0>         0.1332
     64 H25        -7.5924  -19.5478    2.9178 H         1 <0>         0.1242
     65 H26        -6.4446  -19.2970    4.2549 H         1 <0>         0.1263
     66 H27        -7.1024  -17.8981    3.3725 H         1 <0>         0.1203
     67 H28        -4.8840  -18.4394    2.6702 H         1 <0>         0.4313
@<TRIPOS>BOND
     1    1    2 1
     2    1   42 1
     3    1   43 1
     4    1   44 1
     5    2    3 am
     6    2   45 1
     7    3    4 2
     8    3    5 1
     9    5   10 ar
    10    5    6 ar
    11    6    7 ar
    12    6   46 1
    13    7    8 ar
    14    7   11 1
    15    8    9 ar
    16    8   47 1
    17    9   10 ar
    18    9   48 1
    19   11   12 1
    20   12   17 ar
    21   12   13 ar
    22   13   14 ar
    23   13   49 1
    24   14   15 ar
    25   14   50 1
    26   15   20 1
    27   15   16 ar
    28   16   17 ar
    29   16   18 1
    30   17   51 1
    31   18   19 2
    32   19   20 1
    33   19   22 1
    34   20   21 1
    35   22   23 1
    36   22   52 1
    37   23   28 ar
    38   23   24 ar
    39   24   25 ar
    40   24   53 1
    41   25   26 ar
    42   25   54 1
    43   26   27 ar
    44   26   38 1
    45   27   28 ar
    46   27   29 1
    47   28   55 1
    48   29   30 1
    49   30   31 1
    50   30   56 1
    51   30   57 1
    52   31   32 1
    53   31   36 1
    54   31   33 1
    55   33   34 1
    56   33   58 1
    57   33   59 1
    58   34   35 1
    59   34   60 1
    60   34   61 1
    61   35   36 1
    62   35   62 1
    63   35   63 1
    64   36   37 1
    65   36   67 1
    66   37   64 1
    67   37   65 1
    68   37   66 1
    69   38   39 1
    70   38   40 1
    71   38   41 1
@<TRIPOS>MOLECULE
CHEMBL231168
   63    66     0     0     0
SMALL
USER_CHARGES

@<TRIPOS>ATOM
      1 C1         -3.0341   -4.3278    6.8866 C.3       1 <0>         0.0844
      2 N1         -2.0931   -4.2255    5.7685 N.am      1 <0>        -0.7128
      3 C2         -2.2826   -4.9660    4.6584 C.2       1 <0>         0.5696
      4 O1         -3.2340   -5.7183    4.5849 O.2       1 <0>        -0.5301
      5 C3         -1.3308   -4.8625    3.5274 C.ar      1 <0>         0.1133
      6 C4         -1.5356   -5.6254    2.3824 C.ar      1 <0>        -0.1877
      7 C5         -0.6319   -5.5165    1.3285 C.ar      1 <0>         0.1572
      8 C6          0.4441   -4.6436    1.4672 C.ar      1 <0>        -0.1741
      9 C7          0.5805   -3.9183    2.6369 C.ar      1 <0>         0.1365
     10 N2         -0.2931   -4.0383    3.6140 N.ar      1 <0>        -0.4794
     11 O2         -0.7956   -6.2438    0.1942 O.3       1 <0>        -0.2412
     12 C8         -1.8122   -7.1458    0.1554 C.ar      1 <0>         0.0891
     13 C9         -3.1192   -6.7082   -0.0362 C.ar      1 <0>        -0.1253
     14 C10        -4.1577   -7.6106   -0.0776 C.ar      1 <0>        -0.0506
     15 C11        -3.8996   -8.9754    0.0733 C.ar      1 <0>         0.0805
     16 C12        -2.5795   -9.4141    0.2662 C.ar      1 <0>         0.0638
     17 C13        -1.5416   -8.4953    0.3011 C.ar      1 <0>        -0.1007
     18 N3         -2.6443  -10.7929    0.3798 N.pl3     1 <0>        -0.6088
     19 C14        -3.9579  -11.1483    0.2576 C.2       1 <0>         0.5257
     20 N4         -4.6930  -10.0801    0.0778 N.2       1 <0>        -0.5110
     21 N5         -4.4386  -12.4417    0.3152 N.pl3     1 <0>        -0.6398
     22 C15        -5.7903  -12.6968    0.0660 C.ar      1 <0>         0.2564
     23 C16        -6.5201  -11.8431   -0.7524 C.ar      1 <0>        -0.1534
     24 C17        -7.8554  -12.0956   -0.9989 C.ar      1 <0>        -0.0037
     25 C18        -8.4694  -13.1968   -0.4324 C.ar      1 <0>        -0.2346
     26 C19        -7.7456  -14.0527    0.3857 C.ar      1 <0>         0.1950
     27 C20        -6.4038  -13.8061    0.6310 C.ar      1 <0>        -0.2489
     28 O3         -8.3508  -15.1348    0.9422 O.3       1 <0>        -0.3201
     29 C21        -7.5452  -15.9726    1.7735 C.3       1 <0>         0.0235
     30 C22        -8.3931  -17.1298    2.3056 C.3       1 <0>        -0.0022
     31 N6         -8.8348  -17.9693    1.1840 N.4       1 <0>        -0.3907
     32 C23        -7.6705  -18.6288    0.5778 C.3       1 <0>        -0.0540
     33 C24        -9.7738  -18.9870    1.6743 C.3       1 <0>        -0.0477
     34 C25        -9.9268  -13.4679   -0.7032 C.3       1 <0>         0.5201
     35 F1        -10.4368  -12.4758   -1.5474 F         1 <0>        -0.1711
     36 F2        -10.0624  -14.7177   -1.3172 F         1 <0>        -0.1832
     37 F3        -10.6343  -13.4621    0.5037 F         1 <0>        -0.1748
     38 H1         -2.7195   -3.6598    7.6885 H         1 <0>         0.0814
     39 H2         -4.0315   -4.0458    6.5491 H         1 <0>         0.0638
     40 H3         -3.0515   -5.3538    7.2542 H         1 <0>         0.0622
     41 H4         -1.3337   -3.6249    5.8270 H         1 <0>         0.4148
     42 H5         -2.3823   -6.2922    2.3120 H         1 <0>         0.1545
     43 H6          1.1646   -4.5343    0.6700 H         1 <0>         0.1535
     44 H7          1.4138   -3.2405    2.7485 H         1 <0>         0.1762
     45 H8         -3.3201   -5.6535   -0.1530 H         1 <0>         0.1434
     46 H9         -5.1699   -7.2643   -0.2259 H         1 <0>         0.1448
     47 H10        -0.5254   -8.8314    0.4452 H         1 <0>         0.1369
     48 H11        -3.8383  -13.1731    0.5285 H         1 <0>         0.4242
     49 H12        -6.0430  -10.9816   -1.1957 H         1 <0>         0.1662
     50 H13        -8.4211  -11.4310   -1.6352 H         1 <0>         0.1557
     51 H14        -5.8380  -14.4735    1.2641 H         1 <0>         0.1411
     52 H15        -6.7131  -16.3694    1.1918 H         1 <0>         0.0908
     53 H16        -7.1588  -15.3906    2.6102 H         1 <0>         0.1139
     54 H17        -7.7985  -17.7285    2.9955 H         1 <0>         0.1520
     55 H18        -9.2639  -16.7324    2.8270 H         1 <0>         0.1451
     56 H19        -7.1756  -19.2504    1.3241 H         1 <0>         0.1250
     57 H20        -7.9982  -19.2518   -0.2544 H         1 <0>         0.1281
     58 H21        -6.9737  -17.8737    0.2140 H         1 <0>         0.1203
     59 H22        -9.3081  -19.5522    2.4817 H         1 <0>         0.1235
     60 H23       -10.6761  -18.5005    2.0448 H         1 <0>         0.1257
     61 H24       -10.0340  -19.6636    0.8603 H         1 <0>         0.1267
     62 H25        -9.2929  -17.3940    0.4932 H         1 <0>         0.4351
     63 H26        -1.8962  -11.3943    0.5198 H         1 <0>         0.4260
@<TRIPOS>BOND
     1    1    2 1
     2    1   38 1
     3    1   39 1
     4    1   40 1
     5    2    3 am
     6    2   41 1
     7    3    4 2
     8    3    5 1
     9    5   10 ar
    10    5    6 ar
    11    6    7 ar
    12    6   42 1
    13    7    8 ar
    14    7   11 1
    15    8    9 ar
    16    8   43 1
    17    9   10 ar
    18    9   44 1
    19   11   12 1
    20   12   17 ar
    21   12   13 ar
    22   13   14 ar
    23   13   45 1
    24   14   15 ar
    25   14   46 1
    26   15   20 1
    27   15   16 ar
    28   16   17 ar
    29   16   18 1
    30   17   47 1
    31   18   19 1
    32   18   63 1
    33   19   20 2
    34   19   21 1
    35   21   22 1
    36   21   48 1
    37   22   27 ar
    38   22   23 ar
    39   23   24 ar
    40   23   49 1
    41   24   25 ar
    42   24   50 1
    43   25   26 ar
    44   25   34 1
    45   26   27 ar
    46   26   28 1
    47   27   51 1
    48   28   29 1
    49   29   30 1
    50   29   52 1
    51   29   53 1
    52   30   31 1
    53   30   54 1
    54   30   55 1
    55   31   32 1
    56   31   33 1
    57   31   62 1
    58   32   56 1
    59   32   57 1
    60   32   58 1
    61   33   59 1
    62   33   60 1
    63   33   61 1
    64   34   35 1
    65   34   36 1
    66   34   37 1
@<TRIPOS>MOLECULE
CHEMBL231168__1
   63    66     0     0     0
SMALL
USER_CHARGES

@<TRIPOS>ATOM
      1 C1         -6.7552   -7.1984    8.9624 C.3       1 <0>         0.0848
      2 N1         -5.6018   -6.5824    8.3019 N.am      1 <0>        -0.7129
      3 C2         -5.3470   -6.8473    7.0052 C.2       1 <0>         0.5710
      4 O1         -6.0741   -7.5969    6.3840 O.2       1 <0>        -0.5328
      5 C3         -4.1803   -6.2242    6.3371 C.ar      1 <0>         0.1119
      6 C4         -3.9265   -6.4974    4.9970 C.ar      1 <0>        -0.1862
      7 C5         -2.8263   -5.9035    4.3839 C.ar      1 <0>         0.1587
      8 C6         -2.0229   -5.0568    5.1432 C.ar      1 <0>        -0.1738
      9 C7         -2.3399   -4.8341    6.4709 C.ar      1 <0>         0.1364
     10 N2         -3.3896   -5.4058    7.0218 N.ar      1 <0>        -0.4801
     11 O2         -2.5437   -6.1444    3.0784 O.3       1 <0>        -0.2409
     12 C8         -3.3456   -7.0081    2.4005 C.ar      1 <0>         0.0757
     13 C9         -4.5233   -6.5477    1.8194 C.ar      1 <0>        -0.1082
     14 C10        -5.3455   -7.4137    1.1296 C.ar      1 <0>        -0.0844
     15 C11        -4.9989   -8.7513    1.0125 C.ar      1 <0>         0.0582
     16 C12        -3.8119   -9.2239    1.5957 C.ar      1 <0>         0.0867
     17 C13        -2.9838   -8.3366    2.2879 C.ar      1 <0>        -0.0696
     18 N3         -3.7337  -10.5528    1.3233 N.2       1 <0>        -0.5144
     19 C14        -4.7774  -10.9211    0.6229 C.2       1 <0>         0.5283
     20 N4         -5.5912   -9.8470    0.4027 N.pl3     1 <0>        -0.6091
     21 H1         -6.4274   -9.8498   -0.0889 H         1 <0>         0.4267
     22 N5         -5.0189  -12.2040    0.1744 N.pl3     1 <0>        -0.6406
     23 C15        -4.1799  -13.2512    0.5668 C.ar      1 <0>         0.2520
     24 C16        -2.8443  -13.0009    0.8580 C.ar      1 <0>        -0.1537
     25 C17        -2.0157  -14.0355    1.2461 C.ar      1 <0>        -0.0060
     26 C18        -2.5118  -15.3217    1.3454 C.ar      1 <0>        -0.2327
     27 C19        -3.8447  -15.5776    1.0559 C.ar      1 <0>         0.1929
     28 C20        -4.6810  -14.5412    0.6716 C.ar      1 <0>        -0.2458
     29 O3         -4.3308  -16.8429    1.1536 O.3       1 <0>        -0.3229
     30 C21        -5.7120  -17.0332    0.8405 C.3       1 <0>         0.0240
     31 C22        -6.0737  -18.5106    1.0062 C.3       1 <0>        -0.0013
     32 N6         -5.7851  -18.9340    2.3829 N.4       1 <0>        -0.3904
     33 C23        -6.7175  -18.2713    3.3046 C.3       1 <0>        -0.0532
     34 C24        -5.9425  -20.3905    2.4905 C.3       1 <0>        -0.0478
     35 C25        -1.6040  -16.4478    1.7683 C.3       1 <0>         0.5198
     36 F1         -0.3187  -15.9476    2.0030 F         1 <0>        -0.1707
     37 F2         -2.0987  -17.0307    2.9399 F         1 <0>        -0.1831
     38 F3         -1.5518  -17.4105    0.7545 F         1 <0>        -0.1753
     39 H2         -6.7985   -6.8685   10.0004 H         1 <0>         0.0814
     40 H3         -7.6695   -6.9016    8.4485 H         1 <0>         0.0629
     41 H4         -6.6560   -8.2834    8.9298 H         1 <0>         0.0617
     42 H5         -5.0214   -5.9840    8.7978 H         1 <0>         0.4152
     43 H6         -4.5727   -7.1603    4.4407 H         1 <0>         0.1521
     44 H7         -1.1613   -4.5794    4.7003 H         1 <0>         0.1540
     45 H8         -1.7191   -4.1783    7.0633 H         1 <0>         0.1761
     46 H9         -4.7950   -5.5064    1.9094 H         1 <0>         0.1443
     47 H10        -6.2586   -7.0507    0.6813 H         1 <0>         0.1373
     48 H11        -2.0666   -8.6887    2.7364 H         1 <0>         0.1434
     49 H12        -5.7707  -12.3790   -0.4130 H         1 <0>         0.4250
     50 H13        -2.4540  -11.9969    0.7805 H         1 <0>         0.1738
     51 H14        -0.9780  -13.8391    1.4720 H         1 <0>         0.1556
     52 H15        -5.7195  -14.7378    0.4498 H         1 <0>         0.1414
     53 H16        -6.3233  -16.4318    1.5134 H         1 <0>         0.0914
     54 H17        -5.8967  -16.7272   -0.1892 H         1 <0>         0.1134
     55 H18        -7.1344  -18.6506    0.7978 H         1 <0>         0.1516
     56 H19        -5.4848  -19.1090    0.3111 H         1 <0>         0.1439
     57 H20        -7.7403  -18.5462    3.0468 H         1 <0>         0.1248
     58 H21        -6.5034  -18.5854    4.3262 H         1 <0>         0.1281
     59 H22        -6.6007  -17.1905    3.2248 H         1 <0>         0.1202
     60 H23        -5.1972  -20.8836    1.8665 H         1 <0>         0.1254
     61 H24        -5.8066  -20.6950    3.5282 H         1 <0>         0.1267
     62 H25        -6.9407  -20.6737    2.1566 H         1 <0>         0.1235
     63 H26        -4.8384  -18.6795    2.6216 H         1 <0>         0.4355
@<TRIPOS>BOND
     1    1    2 1
     2    1   39 1
     3    1   40 1
     4    1   41 1
     5    2    3 am
     6    2   42 1
     7    3    4 2
     8    3    5 1
     9    5   10 ar
    10    5    6 ar
    11    6    7 ar
    12    6   43 1
    13    7    8 ar
    14    7   11 1
    15    8    9 ar
    16    8   44 1
    17    9   10 ar
    18    9   45 1
    19   11   12 1
    20   12   17 ar
    21   12   13 ar
    22   13   14 ar
    23   13   46 1
    24   14   15 ar
    25   14   47 1
    26   15   20 1
    27   15   16 ar
    28   16   17 ar
    29   16   18 1
    30   17   48 1
    31   18   19 2
    32   19   20 1
    33   19   22 1
    34   20   21 1
    35   22   23 1
    36   22   49 1
    37   23   28 ar
    38   23   24 ar
    39   24   25 ar
    40   24   50 1
    41   25   26 ar
    42   25   51 1
    43   26   27 ar
    44   26   35 1
    45   27   28 ar
    46   27   29 1
    47   28   52 1
    48   29   30 1
    49   30   31 1
    50   30   53 1
    51   30   54 1
    52   31   32 1
    53   31   55 1
    54   31   56 1
    55   32   33 1
    56   32   34 1
    57   32   63 1
    58   33   57 1
    59   33   58 1
    60   33   59 1
    61   34   60 1
    62   34   61 1
    63   34   62 1
    64   35   36 1
    65   35   37 1
    66   35   38 1
@<TRIPOS>MOLECULE
CHEMBL117166
   56    60     0     0     0
SMALL
USER_CHARGES

@<TRIPOS>ATOM
      1 C1         -0.3385    2.0205    0.6581 C.ar      1 <0>        -0.1685
      2 C2          0.8943    2.6451    0.5803 C.ar      1 <0>        -0.0672
      3 C3          2.0402    1.8455    0.5228 C.ar      1 <0>        -0.0520
      4 C4          1.8961    0.4583    0.5459 C.ar      1 <0>         0.1226
      5 N1          0.7009   -0.0899    0.6206 N.ar      1 <0>        -0.4821
      6 C5         -0.3973    0.6390    0.6762 C.ar      1 <0>         0.0969
      7 C6          3.3848    2.4615    0.4382 C.2       1 <0>        -0.1843
      8 C7          3.7854    3.4597   -0.4562 C.2       1 <0>         0.1155
      9 N2          5.0437    3.7512   -0.2301 N.2       1 <0>        -0.3018
     10 N3          5.5192    2.9577    0.8198 N.pl3     1 <0>        -0.3109
     11 C8          4.4903    2.1573    1.2429 C.2       1 <0>         0.2683
     12 N4          4.6623    1.2927    2.2484 N.2       1 <0>        -0.4485
     13 C9          5.8180    1.1882    2.8597 C.2       1 <0>         0.1971
     14 C10         6.9053    1.9951    2.4603 C.2       1 <0>        -0.1583
     15 C11         6.7378    2.8753    1.4280 C.2       1 <0>         0.1858
     16 C12         8.2160    1.8836    3.1474 C.ar      1 <0>        -0.0584
     17 C13         9.3333    1.4281    2.4501 C.ar      1 <0>        -0.0580
     18 C14        10.5501    1.3255    3.0914 C.ar      1 <0>        -0.1372
     19 C15        10.6625    1.6753    4.4300 C.ar      1 <0>         0.1229
     20 C16         9.5513    2.1293    5.1272 C.ar      1 <0>        -0.1992
     21 C17         8.3331    2.2395    4.4897 C.ar      1 <0>        -0.0552
     22 O1         11.8625    1.5727    5.0593 O.3       1 <0>        -0.3271
     23 C18        11.9069    1.9494    6.4371 C.3       1 <0>         0.0248
     24 C19        13.3296    1.7678    6.9699 C.3       1 <0>        -0.0011
     25 N5         14.2380    2.6787    6.2606 N.4       1 <0>        -0.3842
     26 C20        15.6219    2.3958    6.6596 C.3       1 <0>        -0.0071
     27 C21        16.5784    3.2865    5.8638 C.3       1 <0>        -0.1468
     28 C22        16.2539    4.7560    6.1474 C.3       1 <0>        -0.1393
     29 C23        14.7869    5.0214    5.7972 C.3       1 <0>        -0.1454
     30 C24        13.8968    4.0665    6.5956 C.3       1 <0>        -0.0131
     31 H1         -1.2446    2.6060    0.7086 H         1 <0>         0.1382
     32 H2          0.9693    3.7224    0.5642 H         1 <0>         0.1343
     33 H3          2.7721   -0.1718    0.5017 H         1 <0>         0.1507
     34 H4         -1.3578    0.1488    0.7368 H         1 <0>         0.1572
     35 H5          3.1607    3.9154   -1.2101 H         1 <0>         0.2054
     36 H6          5.9379    0.4841    3.6698 H         1 <0>         0.1823
     37 H7          7.5547    3.5039    1.1058 H         1 <0>         0.1814
     38 H8          9.2465    1.1555    1.4087 H         1 <0>         0.1390
     39 H9         11.4163    0.9722    2.5516 H         1 <0>         0.1382
     40 H10         9.6416    2.4008    6.1686 H         1 <0>         0.1324
     41 H11         7.4700    2.5973    5.0313 H         1 <0>         0.1356
     42 H12        11.6116    2.9938    6.5379 H         1 <0>         0.0875
     43 H13        11.2224    1.3216    7.0076 H         1 <0>         0.1111
     44 H14        13.3496    1.9923    8.0363 H         1 <0>         0.1496
     45 H15        13.6491    0.7382    6.8093 H         1 <0>         0.1432
     46 H16        15.7408    2.5962    7.7244 H         1 <0>         0.1293
     47 H17        15.8503    1.3489    6.4601 H         1 <0>         0.1313
     48 H18        17.6053    3.0762    6.1628 H         1 <0>         0.1133
     49 H19        16.4606    3.0867    4.7987 H         1 <0>         0.0880
     50 H20        16.4209    4.9689    7.2033 H         1 <0>         0.0822
     51 H21        16.8950    5.3947    5.5398 H         1 <0>         0.0948
     52 H22        14.5333    6.0513    6.0487 H         1 <0>         0.1123
     53 H23        14.6319    4.8577    4.7308 H         1 <0>         0.0878
     54 H24        12.8516    4.2529    6.3488 H         1 <0>         0.1270
     55 H25        14.0524    4.2312    7.6617 H         1 <0>         0.1304
     56 H26        14.1420    2.5405    5.2658 H         1 <0>         0.4293
@<TRIPOS>BOND
     1    1    6 ar
     2    1    2 ar
     3    1   31 1
     4    2    3 ar
     5    2   32 1
     6    3    4 ar
     7    3    7 1
     8    4    5 ar
     9    4   33 1
    10    5    6 ar
    11    6   34 1
    12    7   11 2
    13    7    8 1
    14    8    9 2
    15    8   35 1
    16    9   10 1
    17   10   15 1
    18   10   11 1
    19   11   12 1
    20   12   13 2
    21   13   14 1
    22   13   36 1
    23   14   15 2
    24   14   16 1
    25   15   37 1
    26   16   21 ar
    27   16   17 ar
    28   17   18 ar
    29   17   38 1
    30   18   19 ar
    31   18   39 1
    32   19   20 ar
    33   19   22 1
    34   20   21 ar
    35   20   40 1
    36   21   41 1
    37   22   23 1
    38   23   24 1
    39   23   42 1
    40   23   43 1
    41   24   25 1
    42   24   44 1
    43   24   45 1
    44   25   30 1
    45   25   26 1
    46   25   56 1
    47   26   27 1
    48   26   46 1
    49   26   47 1
    50   27   28 1
    51   27   48 1
    52   27   49 1
    53   28   29 1
    54   28   50 1
    55   28   51 1
    56   29   30 1
    57   29   52 1
    58   29   53 1
    59   30   54 1
    60   30   55 1
@<TRIPOS>MOLECULE
CHEMBL378895
   73    78     0     0     0
SMALL
USER_CHARGES

@<TRIPOS>ATOM
      1 C1          0.1102    2.3458    0.4511 C.3       1 <0>        -0.0458
      2 N1          0.3161    0.8923    0.3986 N.4       1 <0>        -0.3885
      3 C2         -0.9843    0.2172    0.2948 C.3       1 <0>        -0.0022
      4 C3         -0.7692   -1.2961    0.2212 C.3       1 <0>         0.0247
      5 N2         -0.0590   -1.7463    1.4266 N.3       1 <0>        -0.5342
      6 C4          1.2343   -1.0604    1.5572 C.3       1 <0>         0.0183
      7 C5          1.0028    0.4509    1.6198 C.3       1 <0>        -0.0024
      8 C6          0.1169   -3.2047    1.4201 C.3       1 <0>         0.0987
      9 C7          0.6215   -3.6558    2.7666 C.ar      1 <0>        -0.0826
     10 C8          1.9821   -3.7193    3.0084 C.ar      1 <0>        -0.1191
     11 C9          2.4504   -4.1318    4.2384 C.ar      1 <0>        -0.0820
     12 C10         1.5497   -4.4865    5.2443 C.ar      1 <0>        -0.0058
     13 C11         0.1828   -4.4191    4.9921 C.ar      1 <0>        -0.0674
     14 C12        -0.2766   -4.0004    3.7606 C.ar      1 <0>        -0.0758
     15 C13        -0.5379   -4.8552    6.2443 C.3       1 <0>        -0.0022
     16 C14         0.5350   -5.1839    7.2524 C.2       1 <0>        -0.2237
     17 C15         1.7749   -4.9570    6.6349 C.2       1 <0>         0.0872
     18 N3          2.7239   -5.2416    7.5072 N.2       1 <0>        -0.2423
     19 N4          2.1220   -5.6565    8.7012 N.pl3     1 <0>        -0.4519
     20 H1          2.5847   -5.9255    9.5102 H         1 <0>         0.4491
     21 C16         0.7684   -5.6149    8.5261 C.2       1 <0>         0.1940
     22 C17        -0.2524   -5.9699    9.5280 C.2       1 <0>        -0.1179
     23 C18        -0.2957   -7.0494   10.3723 C.2       1 <0>        -0.1221
     24 C19        -1.3633   -7.1728   11.2334 C.2       1 <0>        -0.1302
     25 C20        -2.3369   -6.2262   11.2208 C.2       1 <0>        -0.1601
     26 S1         -1.7507   -5.1023    9.9638 S.3       1 <0>         0.0974
     27 C21        -3.5878   -6.1429   12.0570 C.3       1 <0>         0.2146
     28 N5         -3.3054   -5.3958   13.2851 N.am      1 <0>        -0.6216
     29 C22        -3.4826   -3.9418   13.3152 C.3       1 <0>         0.0708
     30 C23        -2.8825   -6.0460   14.3873 C.2       1 <0>         0.7092
     31 O1         -2.7354   -7.2527   14.3624 O.2       1 <0>        -0.5593
     32 N6         -2.6227   -5.3587   15.5172 N.am      1 <0>        -0.6817
     33 C24        -2.2910   -6.0430   16.6919 C.ar      1 <0>         0.1972
     34 C25        -1.4058   -5.4771   17.6004 C.ar      1 <0>        -0.1117
     35 C26        -1.0795   -6.1539   18.7592 C.ar      1 <0>        -0.1314
     36 C27        -1.6326   -7.3948   19.0165 C.ar      1 <0>        -0.1229
     37 C28        -2.5156   -7.9627   18.1133 C.ar      1 <0>         0.1284
     38 C29        -2.8505   -7.2860   16.9539 C.ar      1 <0>        -0.1270
     39 F1         -3.0541   -9.1755   18.3670 F         1 <0>        -0.1231
     40 C30        -0.1190   -5.5393   19.7445 C.3       1 <0>         0.5131
     41 F2         -0.8305   -4.7701   20.6715 F         1 <0>        -0.1708
     42 F3          0.5744   -6.5531   20.4141 F         1 <0>        -0.1709
     43 F4          0.7906   -4.7241   19.0624 F         1 <0>        -0.1736
     44 H2          1.0752    2.8470    0.5268 H         1 <0>         0.1240
     45 H3         -0.3993    2.6735   -0.4550 H         1 <0>         0.1241
     46 H4         -0.4981    2.5954    1.3205 H         1 <0>         0.1230
     47 H5         -1.5885    0.4562    1.1700 H         1 <0>         0.1377
     48 H6         -1.4983    0.5553   -0.6049 H         1 <0>         0.1358
     49 H7         -1.7348   -1.7980    0.1592 H         1 <0>         0.1248
     50 H8         -0.1765   -1.5366   -0.6614 H         1 <0>         0.0614
     51 H9          1.7305   -1.3905    2.4698 H         1 <0>         0.1277
     52 H10         1.8601   -1.2971    0.6966 H         1 <0>         0.0614
     53 H11         1.9618    0.9623    1.7024 H         1 <0>         0.1353
     54 H12         0.3884    0.6887    2.4882 H         1 <0>         0.1375
     55 H13        -0.8389   -3.6850    1.2107 H         1 <0>         0.0994
     56 H14         0.8382   -3.4803    0.6508 H         1 <0>         0.0585
     57 H15         2.6801   -3.4453    2.2312 H         1 <0>         0.1248
     58 H16         3.5133   -4.1808    4.4232 H         1 <0>         0.1304
     59 H17        -1.3385   -3.9459    3.5710 H         1 <0>         0.1315
     60 H18        -1.1666   -4.0461    6.6162 H         1 <0>         0.0972
     61 H19        -1.1438   -5.7380    6.0401 H         1 <0>         0.0998
     62 H20         0.4917   -7.7885   10.3619 H         1 <0>         0.1368
     63 H21        -1.4257   -8.0122   11.9100 H         1 <0>         0.1453
     64 H22        -4.3687   -5.6328   11.4929 H         1 <0>         0.1020
     65 H23        -3.9219   -7.1485   12.3122 H         1 <0>         0.1164
     66 H24        -4.5014   -3.7063   13.6229 H         1 <0>         0.0693
     67 H25        -2.7789   -3.5046   14.0235 H         1 <0>         0.0694
     68 H26        -3.2994   -3.5329   12.3216 H         1 <0>         0.0798
     69 H27        -2.6655   -4.3896   15.5160 H         1 <0>         0.4131
     70 H28        -0.9725   -4.5083   17.4005 H         1 <0>         0.1463
     71 H29        -1.3752   -7.9222   19.9231 H         1 <0>         0.1531
     72 H30        -3.5428   -7.7264   16.2516 H         1 <0>         0.1595
     73 H31         0.8796    0.6614   -0.4059 H         1 <0>         0.4223
@<TRIPOS>BOND
     1    1    2 1
     2    1   44 1
     3    1   45 1
     4    1   46 1
     5    2    7 1
     6    2    3 1
     7    2   73 1
     8    3    4 1
     9    3   47 1
    10    3   48 1
    11    4    5 1
    12    4   49 1
    13    4   50 1
    14    5    6 1
    15    5    8 1
    16    6    7 1
    17    6   51 1
    18    6   52 1
    19    7   53 1
    20    7   54 1
    21    8    9 1
    22    8   55 1
    23    8   56 1
    24    9   14 ar
    25    9   10 ar
    26   10   11 ar
    27   10   57 1
    28   11   12 ar
    29   11   58 1
    30   12   17 1
    31   12   13 ar
    32   13   14 ar
    33   13   15 1
    34   14   59 1
    35   15   16 1
    36   15   60 1
    37   15   61 1
    38   16   21 2
    39   16   17 1
    40   17   18 2
    41   18   19 1
    42   19   20 1
    43   19   21 1
    44   21   22 1
    45   22   26 1
    46   22   23 2
    47   23   24 1
    48   23   62 1
    49   24   25 2
    50   24   63 1
    51   25   26 1
    52   25   27 1
    53   27   28 1
    54   27   64 1
    55   27   65 1
    56   28   29 1
    57   28   30 am
    58   29   66 1
    59   29   67 1
    60   29   68 1
    61   30   31 2
    62   30   32 am
    63   32   33 1
    64   32   69 1
    65   33   38 ar
    66   33   34 ar
    67   34   35 ar
    68   34   70 1
    69   35   36 ar
    70   35   40 1
    71   36   37 ar
    72   36   71 1
    73   37   38 ar
    74   37   39 1
    75   38   72 1
    76   40   41 1
    77   40   42 1
    78   40   43 1
@<TRIPOS>MOLECULE
CHEMBL378895__1
   73    78     0     0     0
SMALL
USER_CHARGES

@<TRIPOS>ATOM
      1 C1         -0.2071    2.4452    0.4216 C.3       1 <0>        -0.0460
      2 N1          0.0093    0.9936    0.3599 N.4       1 <0>        -0.3884
      3 C2         -1.2875    0.3085    0.2799 C.3       1 <0>        -0.0024
      4 C3         -1.0619   -1.2028    0.1966 C.3       1 <0>         0.0248
      5 N2         -0.3240   -1.6513    1.3859 N.3       1 <0>        -0.5343
      6 C4          0.9662   -0.9555    1.4929 C.3       1 <0>         0.0186
      7 C5          0.7239    0.5537    1.5654 C.3       1 <0>        -0.0024
      8 C6         -0.1366   -3.1083    1.3708 C.3       1 <0>         0.0981
      9 C7          0.3985   -3.5598    2.7052 C.ar      1 <0>        -0.0820
     10 C8          1.7645   -3.6130    2.9193 C.ar      1 <0>        -0.1167
     11 C9          2.2627   -4.0246    4.1376 C.ar      1 <0>        -0.0913
     12 C10         1.3851   -4.3900    5.1616 C.ar      1 <0>        -0.0246
     13 C11         0.0107   -4.3325    4.9348 C.ar      1 <0>        -0.0656
     14 C12        -0.4773   -3.9151    3.7164 C.ar      1 <0>        -0.0723
     15 C13        -0.6648   -4.7809    6.2076 C.3       1 <0>        -0.0114
     16 C14         0.4505   -5.0971    7.1744 C.2       1 <0>        -0.2159
     17 C15         1.6330   -4.8617    6.5421 C.2       1 <0>         0.0958
     18 N3          2.6333   -5.1522    7.4278 N.pl3     1 <0>        -0.4497
     19 N4          2.0432   -5.5736    8.6253 N.2       1 <0>        -0.2408
     20 H1          3.5853   -5.0793    7.2563 H         1 <0>         0.4442
     21 C16         0.7337   -5.5421    8.4775 C.2       1 <0>         0.1846
     22 C17        -0.2648   -5.9102    9.5051 C.2       1 <0>        -0.0901
     23 C18        -0.1942   -6.8807   10.4676 C.2       1 <0>        -0.1182
     24 C19        -1.2609   -7.0419   11.3255 C.2       1 <0>        -0.1271
     25 C20        -2.3452   -6.2368   11.1909 C.2       1 <0>        -0.1643
     26 S1         -1.8723   -5.1990    9.8175 S.3       1 <0>         0.0809
     27 C21        -3.6185   -6.2198   11.9968 C.3       1 <0>         0.2161
     28 N5         -3.4657   -5.3067   13.1322 N.am      1 <0>        -0.6213
     29 C22        -3.8260   -3.8939   12.9896 C.3       1 <0>         0.0714
     30 C23        -2.9935   -5.7664   14.3079 C.2       1 <0>         0.7092
     31 O1         -2.6944   -6.9389   14.4262 O.2       1 <0>        -0.5589
     32 N6         -2.8529   -4.9263   15.3524 N.am      1 <0>        -0.6820
     33 C24        -2.4689   -5.4231   16.6031 C.ar      1 <0>         0.1982
     34 C25        -1.6869   -4.6475   17.4494 C.ar      1 <0>        -0.1119
     35 C26        -1.3088   -5.1393   18.6833 C.ar      1 <0>        -0.1316
     36 C27        -1.7071   -6.4032   19.0776 C.ar      1 <0>        -0.1234
     37 C28        -2.4868   -7.1799   18.2368 C.ar      1 <0>         0.1283
     38 C29        -2.8735   -6.6894   17.0022 C.ar      1 <0>        -0.1270
     39 F1         -2.8743   -8.4147   18.6244 F         1 <0>        -0.1234
     40 C30        -0.4603   -4.2973   19.6010 C.3       1 <0>         0.5131
     41 F2         -1.2878   -3.5249   20.4231 F         1 <0>        -0.1712
     42 F3          0.3376   -5.1299   20.3930 F         1 <0>        -0.1711
     43 F4          0.3568   -3.4554   18.8390 F         1 <0>        -0.1735
     44 H2          0.7551    2.9539    0.4796 H         1 <0>         0.1240
     45 H3         -0.7374    2.7719   -0.4730 H         1 <0>         0.1245
     46 H4         -0.7997    2.6871    1.3039 H         1 <0>         0.1232
     47 H5         -1.8759    0.5396    1.1678 H         1 <0>         0.1379
     48 H6         -1.8223    0.6454   -0.6081 H         1 <0>         0.1364
     49 H7         -2.0245   -1.7123    0.1523 H         1 <0>         0.1253
     50 H8         -0.4852   -1.4356   -0.6985 H         1 <0>         0.0617
     51 H9          1.4833   -1.2846    2.3942 H         1 <0>         0.1266
     52 H10         1.5763   -1.1843    0.6191 H         1 <0>         0.0613
     53 H11         1.6803    1.0725    1.6305 H         1 <0>         0.1352
     54 H12         0.1252    0.7836    2.4468 H         1 <0>         0.1376
     55 H13        -1.0926   -3.5955    1.1790 H         1 <0>         0.1002
     56 H14         0.5712   -3.3754    0.5862 H         1 <0>         0.0587
     57 H15         2.4438   -3.3312    2.1284 H         1 <0>         0.1251
     58 H16         3.3297   -4.0649    4.2998 H         1 <0>         0.1267
     59 H17        -1.5432   -3.8686    3.5488 H         1 <0>         0.1333
     60 H18        -1.2903   -3.9808    6.6035 H         1 <0>         0.1025
     61 H19        -1.2662   -5.6707    6.0210 H         1 <0>         0.1056
     62 H20         0.6805   -7.5084   10.5530 H         1 <0>         0.1388
     63 H21        -1.2343   -7.7995   12.0948 H         1 <0>         0.1439
     64 H22        -4.4422   -5.8825   11.3677 H         1 <0>         0.1009
     65 H23        -3.8294   -7.2241   12.3641 H         1 <0>         0.1153
     66 H24        -4.8743   -3.7576   13.2556 H         1 <0>         0.0683
     67 H25        -3.2024   -3.2914   13.6501 H         1 <0>         0.0687
     68 H26        -3.6696   -3.5814   11.9572 H         1 <0>         0.0799
     69 H27        -3.0179   -3.9774   15.2373 H         1 <0>         0.4129
     70 H28        -1.3744   -3.6603   17.1425 H         1 <0>         0.1462
     71 H29        -1.4094   -6.7857   20.0427 H         1 <0>         0.1528
     72 H30        -3.4856   -7.2928   16.3482 H         1 <0>         0.1596
     73 H31         0.5583    0.7700   -0.4567 H         1 <0>         0.4223
@<TRIPOS>BOND
     1    1    2 1
     2    1   44 1
     3    1   45 1
     4    1   46 1
     5    2    7 1
     6    2    3 1
     7    2   73 1
     8    3    4 1
     9    3   47 1
    10    3   48 1
    11    4    5 1
    12    4   49 1
    13    4   50 1
    14    5    6 1
    15    5    8 1
    16    6    7 1
    17    6   51 1
    18    6   52 1
    19    7   53 1
    20    7   54 1
    21    8    9 1
    22    8   55 1
    23    8   56 1
    24    9   14 ar
    25    9   10 ar
    26   10   11 ar
    27   10   57 1
    28   11   12 ar
    29   11   58 1
    30   12   13 ar
    31   12   17 1
    32   13   14 ar
    33   13   15 1
    34   14   59 1
    35   15   60 1
    36   15   61 1
    37   15   16 1
    38   16   21 1
    39   16   17 2
    40   17   18 1
    41   18   19 1
    42   18   20 1
    43   19   21 2
    44   21   22 1
    45   22   26 1
    46   22   23 2
    47   23   24 1
    48   23   62 1
    49   24   25 2
    50   24   63 1
    51   25   26 1
    52   25   27 1
    53   27   28 1
    54   27   64 1
    55   27   65 1
    56   28   29 1
    57   28   30 am
    58   29   66 1
    59   29   67 1
    60   29   68 1
    61   30   31 2
    62   30   32 am
    63   32   33 1
    64   32   69 1
    65   33   38 ar
    66   33   34 ar
    67   34   35 ar
    68   34   70 1
    69   35   36 ar
    70   35   40 1
    71   36   37 ar
    72   36   71 1
    73   37   38 ar
    74   37   39 1
    75   38   72 1
    76   40   41 1
    77   40   42 1
    78   40   43 1
@<TRIPOS>MOLECULE
CHEMBL231612
   63    67     0     0     0
SMALL
USER_CHARGES

@<TRIPOS>ATOM
      1 C1          5.5207    0.7984    2.1914 C.3       1 <0>        -0.1177
      2 C2          4.9655   -0.4645    1.5848 C.ar      1 <0>        -0.0636
      3 C3          5.5396   -0.9926    0.4427 C.ar      1 <0>        -0.1302
      4 C4          5.0329   -2.1507   -0.1172 C.ar      1 <0>        -0.0950
      5 C5          3.9513   -2.7843    0.4632 C.ar      1 <0>        -0.1249
      6 C6          3.3730   -2.2570    1.6100 C.ar      1 <0>         0.1563
      7 C7          3.8876   -1.0962    2.1730 C.ar      1 <0>        -0.1444
      8 N1          2.2772   -2.8964    2.2004 N.am      1 <0>        -0.6763
      9 C8          2.1757   -4.2396    2.1545 C.2       1 <0>         0.7045
     10 O1          3.0776   -4.9015    1.6781 O.2       1 <0>        -0.5494
     11 N2          1.0746   -4.8491    2.6367 N.am      1 <0>        -0.6853
     12 C9          1.0119   -6.2466    2.6832 C.ar      1 <0>         0.1931
     13 C10         2.1641   -6.9848    2.9242 C.ar      1 <0>        -0.1227
     14 C11         2.1053   -8.3616    2.9701 C.ar      1 <0>        -0.0856
     15 C12         0.8879   -9.0132    2.7748 C.ar      1 <0>        -0.0982
     16 C13        -0.2671   -8.2698    2.5336 C.ar      1 <0>        -0.0676
     17 C14        -0.2035   -6.8929    2.4939 C.ar      1 <0>        -0.1422
     18 C15         0.8217  -10.4932    2.8231 C.2       1 <0>        -0.0431
     19 C16         0.3417  -11.1958    1.7703 C.2       1 <0>        -0.1322
     20 S1          0.4677  -12.8904    2.3098 S.3       1 <0>         0.2084
     21 C17         1.1547  -12.6199    3.9198 C.ar      1 <0>        -0.0529
     22 C18         1.2787  -11.2193    4.0051 C.ar      1 <0>        -0.1363
     23 C19         1.8199  -10.7172    5.2172 C.ar      1 <0>         0.4991
     24 N3          2.1833  -11.5277    6.1894 N.ar      1 <0>        -0.4952
     25 C20         2.0758  -12.8437    6.1173 C.ar      1 <0>         0.1310
     26 C21         1.5474  -13.4392    4.9765 C.ar      1 <0>        -0.0109
     27 C22         1.4212  -14.9133    4.8802 C.ar      1 <0>        -0.0823
     28 C23         0.2170  -15.4863    4.4698 C.ar      1 <0>        -0.0698
     29 C24         0.0972  -16.8590    4.3789 C.ar      1 <0>        -0.1134
     30 C25         1.1668  -17.6737    4.6930 C.ar      1 <0>        -0.0623
     31 C26         2.3771  -17.1128    5.1053 C.ar      1 <0>        -0.1255
     32 C27         2.5052  -15.7276    5.1933 C.ar      1 <0>        -0.0357
     33 C28         3.5219  -17.9858    5.4425 C.2       1 <0>         0.5541
     34 O2          4.5748  -17.4960    5.8013 O.2       1 <0>        -0.5309
     35 N4          3.3978  -19.3248    5.3519 N.am      1 <0>        -0.7264
     36 C29         4.5320  -20.1898    5.6860 C.3       1 <0>         0.0835
     37 N5          1.9691   -9.3478    5.3807 N.pl3     1 <0>        -0.8243
     38 H1          6.2965    0.5439    2.9137 H         1 <0>         0.0735
     39 H2          5.9465    1.4223    1.4056 H         1 <0>         0.0712
     40 H3          4.7208    1.3423    2.6939 H         1 <0>         0.0679
     41 H4          6.3853   -0.4990   -0.0129 H         1 <0>         0.1264
     42 H5          5.4829   -2.5602   -1.0095 H         1 <0>         0.1281
     43 H6          3.5557   -3.6888    0.0251 H         1 <0>         0.1338
     44 H7          3.4425   -0.6858    3.0673 H         1 <0>         0.1256
     45 H8          1.5907   -2.3730    2.6427 H         1 <0>         0.4103
     46 H9          0.3255   -4.3192    2.9515 H         1 <0>         0.4138
     47 H10         3.1067   -6.4797    3.0753 H         1 <0>         0.1468
     48 H11         3.0013   -8.9350    3.1567 H         1 <0>         0.1300
     49 H12        -1.2112   -8.7718    2.3816 H         1 <0>         0.1375
     50 H13        -1.0984   -6.3165    2.3115 H         1 <0>         0.1388
     51 H14        -0.0294  -10.8196    0.8284 H         1 <0>         0.2133
     52 H15         2.3917  -13.4568    6.9485 H         1 <0>         0.2154
     53 H16        -0.6235  -14.8546    4.2230 H         1 <0>         0.1334
     54 H17        -0.8373  -17.2973    4.0610 H         1 <0>         0.1441
     55 H18         1.0670  -18.7466    4.6199 H         1 <0>         0.1369
     56 H19         3.4406  -15.2883    5.5072 H         1 <0>         0.1439
     57 H20         2.5575  -19.7158    5.0656 H         1 <0>         0.4031
     58 H21         5.3711  -19.9582    5.0301 H         1 <0>         0.0655
     59 H22         4.8240  -20.0220    6.7226 H         1 <0>         0.0655
     60 H23         4.2446  -21.2329    5.5538 H         1 <0>         0.0823
     61 H24         1.3844   -8.7361    4.9064 H         1 <0>         0.4396
     62 H25         2.6582   -9.0018    5.9692 H         1 <0>         0.4217
     63 H26         2.5489  -11.1396    6.9997 H         1 <0>         0.4458
@<TRIPOS>BOND
     1    1    2 1
     2    1   38 1
     3    1   39 1
     4    1   40 1
     5    2    7 ar
     6    2    3 ar
     7    3    4 ar
     8    3   41 1
     9    4    5 ar
    10    4   42 1
    11    5    6 ar
    12    5   43 1
    13    6    7 ar
    14    6    8 1
    15    7   44 1
    16    8    9 am
    17    8   45 1
    18    9   10 2
    19    9   11 am
    20   11   12 1
    21   11   46 1
    22   12   17 ar
    23   12   13 ar
    24   13   14 ar
    25   13   47 1
    26   14   15 ar
    27   14   48 1
    28   15   16 ar
    29   15   18 1
    30   16   17 ar
    31   16   49 1
    32   17   50 1
    33   18   22 1
    34   18   19 2
    35   19   20 1
    36   19   51 1
    37   20   21 1
    38   21   26 ar
    39   21   22 ar
    40   22   23 ar
    41   23   24 ar
    42   23   37 1
    43   24   25 ar
    44   24   63 1
    45   25   26 ar
    46   25   52 1
    47   26   27 1
    48   27   32 ar
    49   27   28 ar
    50   28   29 ar
    51   28   53 1
    52   29   30 ar
    53   29   54 1
    54   30   31 ar
    55   30   55 1
    56   31   32 ar
    57   31   33 1
    58   32   56 1
    59   33   34 2
    60   33   35 am
    61   35   36 1
    62   35   57 1
    63   36   58 1
    64   36   59 1
    65   36   60 1
    66   37   61 1
    67   37   62 1
@<TRIPOS>MOLECULE
CHEMBL231612__1
   62    66     0     0     0
SMALL
USER_CHARGES

@<TRIPOS>ATOM
      1 C1          5.5190    0.7987    2.1903 C.3       1 <0>        -0.1156
      2 C2          4.9636   -0.4642    1.5839 C.ar      1 <0>        -0.0661
      3 C3          5.5371   -0.9922    0.4415 C.ar      1 <0>        -0.1344
      4 C4          5.0302   -2.1503   -0.1182 C.ar      1 <0>        -0.0952
      5 C5          3.9489   -2.7840    0.4626 C.ar      1 <0>        -0.1250
      6 C6          3.3711   -2.2567    1.6097 C.ar      1 <0>         0.1634
      7 C7          3.8860   -1.0960    2.1725 C.ar      1 <0>        -0.1467
      8 N1          2.2756   -2.8963    2.2005 N.am      1 <0>        -0.6807
      9 C8          2.1742   -4.2394    2.1546 C.2       1 <0>         0.7035
     10 O1          3.0759   -4.9013    1.6777 O.2       1 <0>        -0.5494
     11 N2          1.0733   -4.8490    2.6372 N.am      1 <0>        -0.6823
     12 C9          1.0107   -6.2465    2.6837 C.ar      1 <0>         0.1725
     13 C10         2.1630   -6.9847    2.9242 C.ar      1 <0>        -0.1222
     14 C11         2.1043   -8.3615    2.9700 C.ar      1 <0>        -0.0735
     15 C12         0.8868   -9.0131    2.7753 C.ar      1 <0>        -0.0671
     16 C13        -0.2683   -8.2697    2.5346 C.ar      1 <0>        -0.0788
     17 C14        -0.2048   -6.8929    2.4949 C.ar      1 <0>        -0.1455
     18 C15         0.8207  -10.4931    2.8235 C.2       1 <0>        -0.0412
     19 C16         0.3403  -11.1958    1.7708 C.2       1 <0>        -0.1623
     20 S1          0.4666  -12.8904    2.3102 S.3       1 <0>         0.0737
     21 C17         1.1543  -12.6199    3.9200 C.ar      1 <0>        -0.0384
     22 C18         1.2782  -11.2192    4.0053 C.ar      1 <0>        -0.1830
     23 C19         1.8199  -10.7172    5.2172 C.ar      1 <0>         0.4615
     24 N3          2.1838  -11.5277    6.1892 N.ar      1 <0>        -0.5443
     25 C20         2.0763  -12.8437    6.1171 C.ar      1 <0>         0.1852
     26 C21         1.5475  -13.4392    4.9765 C.ar      1 <0>        -0.1175
     27 C22         1.4213  -14.9133    4.8802 C.ar      1 <0>        -0.0388
     28 C23         0.2169  -15.4863    4.4702 C.ar      1 <0>        -0.0804
     29 C24         0.0971  -16.8591    4.3793 C.ar      1 <0>        -0.1193
     30 C25         1.1669  -17.6737    4.6929 C.ar      1 <0>        -0.0852
     31 C26         2.3774  -17.1127    5.1048 C.ar      1 <0>        -0.1323
     32 C27         2.5054  -15.7275    5.1928 C.ar      1 <0>        -0.0458
     33 C28         3.5223  -17.9858    5.4415 C.2       1 <0>         0.5573
     34 O2          4.5754  -17.4959    5.7999 O.2       1 <0>        -0.5322
     35 N4          3.3982  -19.3248    5.3509 N.am      1 <0>        -0.7319
     36 C29         4.5326  -20.1897    5.6845 C.3       1 <0>         0.0863
     37 N5          1.9691   -9.3478    5.3807 N.pl3     1 <0>        -0.8490
     38 H1          6.2951    0.5442    2.9122 H         1 <0>         0.0724
     39 H2          5.9444    1.4226    1.4043 H         1 <0>         0.0690
     40 H3          4.7193    1.3425    2.6932 H         1 <0>         0.0666
     41 H4          6.3826   -0.4986   -0.0145 H         1 <0>         0.1240
     42 H5          5.4799   -2.5598   -1.0107 H         1 <0>         0.1267
     43 H6          3.5532   -3.6885    0.0247 H         1 <0>         0.1351
     44 H7          3.4413   -0.6856    3.0671 H         1 <0>         0.1248
     45 H8          1.5893   -2.3729    2.6431 H         1 <0>         0.4087
     46 H9          0.3243   -4.3192    2.9524 H         1 <0>         0.4098
     47 H10         3.1057   -6.4796    3.0750 H         1 <0>         0.1406
     48 H11         3.0004   -8.9348    3.1563 H         1 <0>         0.1305
     49 H12        -1.2124   -8.7718    2.3830 H         1 <0>         0.1317
     50 H13        -1.0998   -6.3165    2.3129 H         1 <0>         0.1308
     51 H14        -0.0311  -10.8195    0.8291 H         1 <0>         0.1923
     52 H15         2.3925  -13.4568    6.9481 H         1 <0>         0.1697
     53 H16        -0.6237  -14.8547    4.2238 H         1 <0>         0.1284
     54 H17        -0.8375  -17.2973    4.0618 H         1 <0>         0.1335
     55 H18         1.0671  -18.7466    4.6198 H         1 <0>         0.1271
     56 H19         3.4409  -15.2882    5.5063 H         1 <0>         0.1394
     57 H20         2.5579  -19.7157    5.0649 H         1 <0>         0.4017
     58 H21         5.3715  -19.9580    5.0282 H         1 <0>         0.0622
     59 H22         4.8250  -20.0219    6.7210 H         1 <0>         0.0624
     60 H23         4.2453  -21.2328    5.5524 H         1 <0>         0.0777
     61 H24         1.3844   -8.7361    4.9064 H         1 <0>         0.4111
     62 H25         2.6582   -9.0018    5.9692 H         1 <0>         0.4041
@<TRIPOS>BOND
     1    1    2 1
     2    1   38 1
     3    1   39 1
     4    1   40 1
     5    2    7 ar
     6    2    3 ar
     7    3    4 ar
     8    3   41 1
     9    4    5 ar
    10    4   42 1
    11    5    6 ar
    12    5   43 1
    13    6    7 ar
    14    6    8 1
    15    7   44 1
    16    8    9 am
    17    8   45 1
    18    9   10 2
    19    9   11 am
    20   11   12 1
    21   11   46 1
    22   12   17 ar
    23   12   13 ar
    24   13   14 ar
    25   13   47 1
    26   14   15 ar
    27   14   48 1
    28   15   16 ar
    29   15   18 1
    30   16   17 ar
    31   16   49 1
    32   17   50 1
    33   18   22 1
    34   18   19 2
    35   19   20 1
    36   19   51 1
    37   20   21 1
    38   21   26 ar
    39   21   22 ar
    40   22   23 ar
    41   23   24 ar
    42   23   37 1
    43   24   25 ar
    44   25   26 ar
    45   25   52 1
    46   26   27 1
    47   27   32 ar
    48   27   28 ar
    49   28   29 ar
    50   28   53 1
    51   29   30 ar
    52   29   54 1
    53   30   31 ar
    54   30   55 1
    55   31   32 ar
    56   31   33 1
    57   32   56 1
    58   33   34 2
    59   33   35 am
    60   35   36 1
    61   35   57 1
    62   36   58 1
    63   36   59 1
    64   36   60 1
    65   37   61 1
    66   37   62 1
@<TRIPOS>MOLECULE
CHEMBL375819
   41    43     0     0     0
SMALL
USER_CHARGES

@<TRIPOS>ATOM
      1 C1         -0.0169    1.3763    0.0332 C.ar      1 <0>        -0.1208
      2 C2          1.1651    2.0896    0.0238 C.ar      1 <0>        -0.0648
      3 C3          2.3906    1.4170   -0.0012 C.ar      1 <0>         0.0155
      4 C4          2.4161    0.0221   -0.0167 C.ar      1 <0>        -0.0318
      5 C5          1.2190   -0.6899   -0.0071 C.ar      1 <0>        -0.1362
      6 C6          0.0019   -0.0042    0.0179 C.ar      1 <0>        -0.0766
      7 C7          1.2362   -2.1680   -0.0239 C.2       1 <0>         0.5622
      8 O1          2.2959   -2.7633   -0.0461 O.2       1 <0>        -0.5085
      9 N1          0.0771   -2.8556   -0.0146 N.am      1 <0>        -0.6690
     10 C8          0.0899   -4.2494   -0.1282 C.ar      1 <0>         0.1435
     11 C9         -0.9212   -4.9004   -0.8235 C.ar      1 <0>        -0.1110
     12 C10        -0.9057   -6.2768   -0.9338 C.ar      1 <0>        -0.0994
     13 C11         0.1152   -7.0071   -0.3530 C.ar      1 <0>        -0.0859
     14 C12         1.1232   -6.3622    0.3397 C.ar      1 <0>        -0.1641
     15 C13         1.1166   -4.9852    0.4489 C.ar      1 <0>        -0.0721
     16 C14         2.2336   -7.1620    0.9709 C.3       1 <0>         0.5092
     17 F1          2.0276   -8.5231    0.7220 F         1 <0>        -0.1761
     18 F2          3.4602   -6.7685    0.4251 F         1 <0>        -0.1724
     19 F3          2.2438   -6.9367    2.3516 F         1 <0>        -0.1756
     20 C15         3.6161    2.1577   -0.0114 C.1       1 <0>        -0.1243
     21 C16         4.6208    2.7649   -0.0197 C.1       1 <0>        -0.0827
     22 C17         5.8463    3.5057   -0.0299 C.ar      1 <0>        -0.1621
     23 C18         5.8400    4.9068   -0.0092 C.ar      1 <0>         0.2274
     24 N2          6.9920    5.5523   -0.0190 N.ar      1 <0>        -0.5674
     25 C19         8.1418    4.8931   -0.0480 C.ar      1 <0>         0.5725
     26 N3          8.1906    3.5685   -0.0687 N.ar      1 <0>        -0.5668
     27 C20         7.0837    2.8485   -0.0549 C.ar      1 <0>         0.2282
     28 N4          9.3254    5.6085   -0.0573 N.pl3     1 <0>        -0.8130
     29 H1         -0.9607    1.9006    0.0570 H         1 <0>         0.1393
     30 H2          1.1432    3.1693    0.0355 H         1 <0>         0.1362
     31 H3          3.3596   -0.5030   -0.0364 H         1 <0>         0.1440
     32 H4         -0.9267   -0.5555    0.0254 H         1 <0>         0.1302
     33 H5         -0.7661   -2.3837    0.0710 H         1 <0>         0.4145
     34 H6         -1.7189   -4.3308   -1.2769 H         1 <0>         0.1375
     35 H7         -1.6917   -6.7836   -1.4739 H         1 <0>         0.1419
     36 H8          0.1249   -8.0835   -0.4405 H         1 <0>         0.1416
     37 H9          1.9066   -4.4817    0.9862 H         1 <0>         0.1511
     38 H10         4.9071    5.4505    0.0141 H         1 <0>         0.1748
     39 H11         7.1312    1.7696   -0.0669 H         1 <0>         0.1754
     40 H12         9.3062    6.5782   -0.0428 H         1 <0>         0.4177
     41 H13        10.1748    5.1405   -0.0785 H         1 <0>         0.4179
@<TRIPOS>BOND
     1    1    6 ar
     2    1    2 ar
     3    1   29 1
     4    2    3 ar
     5    2   30 1
     6    3    4 ar
     7    3   20 1
     8    4    5 ar
     9    4   31 1
    10    5    6 ar
    11    5    7 1
    12    6   32 1
    13    7    8 2
    14    7    9 am
    15    9   10 1
    16    9   33 1
    17   10   15 ar
    18   10   11 ar
    19   11   12 ar
    20   11   34 1
    21   12   13 ar
    22   12   35 1
    23   13   14 ar
    24   13   36 1
    25   14   15 ar
    26   14   16 1
    27   15   37 1
    28   16   17 1
    29   16   18 1
    30   16   19 1
    31   20   21 3
    32   21   22 1
    33   22   27 ar
    34   22   23 ar
    35   23   24 ar
    36   23   38 1
    37   24   25 ar
    38   25   26 ar
    39   25   28 1
    40   26   27 ar
    41   27   39 1
    42   28   40 1
    43   28   41 1
@<TRIPOS>MOLECULE
CHEMBL565990
   61    65     0     0     0
SMALL
USER_CHARGES

@<TRIPOS>ATOM
      1 C1         -1.7710   -4.0424   -0.6588 C.3       1 <0>        -0.1728
      2 C2         -1.8989   -3.9364   -2.1798 C.3       1 <0>         0.0960
      3 N1         -0.6754   -3.3507   -2.7331 N.pl3     1 <0>        -0.4543
      4 C3         -0.4372   -2.0318   -2.9237 C.2       1 <0>         0.0494
      5 C4          0.8168   -1.9287   -3.4556 C.2       1 <0>        -0.0915
      6 N2          1.3135   -3.1862   -3.5768 N.2       1 <0>        -0.4526
      7 C5          0.4262   -4.0334   -3.1415 C.2       1 <0>         0.1961
      8 C6          1.5041   -0.6810   -3.8301 C.2       1 <0>         0.5252
      9 O1          0.9489    0.3906   -3.6723 O.2       1 <0>        -0.4378
     10 C7          2.8616   -0.7300   -4.3947 C.2       1 <0>        -0.1882
     11 C8          3.6537    0.3038   -4.7922 C.2       1 <0>        -0.0705
     12 C9          4.9344    0.0465   -5.3114 C.ar      1 <0>         0.1322
     13 C10         5.2979   -1.3170   -5.3763 C.ar      1 <0>        -0.2171
     14 S1          3.8803   -2.1586   -4.7210 S.3       1 <0>         0.2077
     15 C11         6.5298   -1.7224   -5.8657 C.ar      1 <0>         0.2069
     16 C12         7.4142   -0.7393   -6.2984 C.ar      1 <0>        -0.2282
     17 C13         7.0173    0.5874   -6.2172 C.ar      1 <0>         0.1563
     18 N3          5.8490    0.9425   -5.7508 N.ar      1 <0>        -0.4695
     19 O2          6.8631   -3.0370   -5.9206 O.3       1 <0>        -0.2352
     20 C14         8.0435   -3.3726   -6.5067 C.ar      1 <0>         0.0178
     21 C15         8.0861   -3.6657   -7.8616 C.ar      1 <0>        -0.0647
     22 C16         9.2844   -4.0066   -8.4577 C.ar      1 <0>        -0.1475
     23 C17        10.4476   -4.0565   -7.7009 C.ar      1 <0>         0.1930
     24 C18        10.4062   -3.7633   -6.3445 C.ar      1 <0>        -0.1593
     25 C19         9.2074   -3.4161   -5.7493 C.ar      1 <0>         0.1270
     26 F1          9.1669   -3.1252   -4.4306 F         1 <0>        -0.1199
     27 N4         11.6626   -4.4032   -8.3058 N.am      1 <0>        -0.6722
     28 C20        12.8250   -3.9663   -7.7820 C.2       1 <0>         0.5118
     29 O3         12.8165   -3.1851   -6.8542 O.2       1 <0>        -0.4617
     30 C21        14.1354   -4.4484   -8.3491 C.3       1 <0>        -0.1631
     31 C22        15.2739   -3.8149   -7.5919 C.2       1 <0>         0.5103
     32 O4         15.0439   -3.0474   -6.6813 O.2       1 <0>        -0.4703
     33 N5         16.5477   -4.1011   -7.9265 N.am      1 <0>        -0.6764
     34 C23        17.6027   -3.6041   -7.1532 C.ar      1 <0>         0.1442
     35 C24        18.7966   -3.2359   -7.7596 C.ar      1 <0>        -0.1449
     36 C25        19.8360   -2.7458   -6.9936 C.ar      1 <0>        -0.1013
     37 C26        19.6890   -2.6216   -5.6242 C.ar      1 <0>        -0.1331
     38 C27        18.5016   -2.9878   -5.0174 C.ar      1 <0>        -0.1001
     39 C28        17.4562   -3.4728   -5.7785 C.ar      1 <0>        -0.1195
     40 H1         -0.9198   -4.6758   -0.4091 H         1 <0>         0.0665
     41 H2         -1.6208   -3.0488   -0.2367 H         1 <0>         0.0652
     42 H3         -2.6813   -4.4783   -0.2472 H         1 <0>         0.0815
     43 H4         -2.0491   -4.9301   -2.6019 H         1 <0>         0.1014
     44 H5         -2.7501   -3.3031   -2.4296 H         1 <0>         0.0978
     45 H6         -1.1096   -1.2172   -2.6984 H         1 <0>         0.1902
     46 H7          0.5454   -5.1064   -3.1119 H         1 <0>         0.2146
     47 H8          3.2983    1.3202   -4.7088 H         1 <0>         0.1565
     48 H9          8.3864   -1.0028   -6.6879 H         1 <0>         0.1483
     49 H10         7.6990    1.3555   -6.5515 H         1 <0>         0.1676
     50 H11         7.1818   -3.6278   -8.4507 H         1 <0>         0.1496
     51 H12         9.3167   -4.2347   -9.5128 H         1 <0>         0.1453
     52 H13        11.3105   -3.8023   -5.7554 H         1 <0>         0.1652
     53 H14        11.6673   -4.9577   -9.1017 H         1 <0>         0.4173
     54 H15        14.1951   -5.5327   -8.2548 H         1 <0>         0.1335
     55 H16        14.1999   -4.1711   -9.4013 H         1 <0>         0.1316
     56 H17        16.7331   -4.6516   -8.7033 H         1 <0>         0.4105
     57 H18        18.9122   -3.3331   -8.8290 H         1 <0>         0.1253
     58 H19        20.7648   -2.4596   -7.4645 H         1 <0>         0.1269
     59 H20        20.5033   -2.2380   -5.0274 H         1 <0>         0.1243
     60 H21        18.3900   -2.8899   -3.9476 H         1 <0>         0.1264
     61 H22        16.5273   -3.7538   -5.3046 H         1 <0>         0.1323
@<TRIPOS>BOND
     1    1    2 1
     2    1   40 1
     3    1   41 1
     4    1   42 1
     5    2    3 1
     6    2   43 1
     7    2   44 1
     8    3    7 1
     9    3    4 1
    10    4    5 2
    11    4   45 1
    12    5    6 1
    13    5    8 1
    14    6    7 2
    15    7   46 1
    16    8    9 2
    17    8   10 1
    18   10   14 1
    19   10   11 2
    20   11   12 1
    21   11   47 1
    22   12   18 ar
    23   12   13 ar
    24   13   14 1
    25   13   15 ar
    26   15   16 ar
    27   15   19 1
    28   16   17 ar
    29   16   48 1
    30   17   18 ar
    31   17   49 1
    32   19   20 1
    33   20   25 ar
    34   20   21 ar
    35   21   22 ar
    36   21   50 1
    37   22   23 ar
    38   22   51 1
    39   23   24 ar
    40   23   27 1
    41   24   25 ar
    42   24   52 1
    43   25   26 1
    44   27   28 am
    45   27   53 1
    46   28   29 2
    47   28   30 1
    48   30   31 1
    49   30   54 1
    50   30   55 1
    51   31   32 2
    52   31   33 am
    53   33   34 1
    54   33   56 1
    55   34   39 ar
    56   34   35 ar
    57   35   36 ar
    58   35   57 1
    59   36   37 ar
    60   36   58 1
    61   37   38 ar
    62   37   59 1
    63   38   39 ar
    64   38   60 1
    65   39   61 1
@<TRIPOS>MOLECULE
CHEMBL231371
   61    66     0     0     0
SMALL
USER_CHARGES

@<TRIPOS>ATOM
      1 C1         -0.1723   -8.3021   -3.0214 C.3       1 <0>        -0.0455
      2 N1         -0.5234   -7.2121   -2.1013 N.4       1 <0>        -0.3879
      3 C2          0.5057   -6.1661   -2.1665 C.3       1 <0>        -0.0023
      4 C3          0.1308   -5.0218   -1.2222 C.3       1 <0>         0.0268
      5 N2          0.0195   -5.5388    0.1492 N.3       1 <0>        -0.5298
      6 C4         -0.9899   -6.6044    0.2249 C.3       1 <0>         0.0241
      7 C5         -0.6057   -7.7356   -0.7314 C.3       1 <0>        -0.0020
      8 C6         -0.2842   -4.4577    1.0963 C.3       1 <0>         0.0994
      9 C7          0.0052   -4.9235    2.4999 C.ar      1 <0>        -0.0641
     10 C8         -1.0360   -5.2461    3.3483 C.ar      1 <0>        -0.1423
     11 C9         -0.7685   -5.6757    4.6416 C.ar      1 <0>         0.1865
     12 C10         0.5461   -5.7798    5.0783 C.ar      1 <0>        -0.1041
     13 C11         1.5831   -5.4560    4.2259 C.ar      1 <0>        -0.0823
     14 C12         1.3138   -5.0331    2.9358 C.ar      1 <0>        -0.0319
     15 Cl1         2.6201   -4.6331    1.8647 Cl        1 <0>        -0.0612
     16 N3         -1.8208   -6.0026    5.5029 N.pl3     1 <0>        -0.6445
     17 C13        -1.6691   -5.8505    6.8670 C.2       1 <0>         0.5292
     18 N4         -0.6265   -5.3182    7.4531 N.2       1 <0>        -0.5184
     19 C14        -0.8075   -5.3251    8.8011 C.ar      1 <0>         0.0809
     20 C15        -0.0272   -4.8896    9.8751 C.ar      1 <0>        -0.0587
     21 C16        -0.4912   -5.0356   11.1626 C.ar      1 <0>        -0.1067
     22 C17        -1.7334   -5.6149   11.4030 C.ar      1 <0>         0.1048
     23 C18        -2.5168   -6.0507   10.3485 C.ar      1 <0>        -0.0980
     24 C19        -2.0610   -5.9089    9.0466 C.ar      1 <0>         0.0618
     25 N5         -2.5874   -6.2278    7.8058 N.pl3     1 <0>        -0.6133
     26 O1         -2.1795   -5.7540   12.6799 O.3       1 <0>        -0.2319
     27 C20        -2.0915   -6.9772   13.2545 C.ar      1 <0>         0.4111
     28 C21        -2.6434   -7.2175   14.5200 C.ar      1 <0>        -0.2214
     29 C22        -3.3723   -6.4160   15.5016 C.2       1 <0>        -0.1585
     30 C23        -3.6402   -7.2237   16.5405 C.2       1 <0>         0.0512
     31 N6         -3.1390   -8.4762   16.2971 N.pl3     1 <0>        -0.5667
     32 H1         -3.2092   -9.2307   16.9027 H         1 <0>         0.4274
     33 C24        -2.5258   -8.5061   15.0748 C.ar      1 <0>         0.3402
     34 N7         -1.8937   -9.4452   14.3737 N.ar      1 <0>        -0.5455
     35 C25        -1.3908   -9.1737   13.1890 C.ar      1 <0>         0.3532
     36 N8         -1.4848   -7.9802   12.6302 N.ar      1 <0>        -0.5814
     37 H2         -0.9366   -9.0778   -2.9741 H         1 <0>         0.1235
     38 H3         -0.1112   -7.9138   -4.0381 H         1 <0>         0.1241
     39 H4          0.7912   -8.7234   -2.7348 H         1 <0>         0.1231
     40 H5          1.4674   -6.5834   -1.8679 H         1 <0>         0.1384
     41 H6          0.5749   -5.7876   -3.1864 H         1 <0>         0.1358
     42 H7          0.9018   -4.2523   -1.2592 H         1 <0>         0.1246
     43 H8         -0.8243   -4.5953   -1.5287 H         1 <0>         0.0612
     44 H9         -1.0365   -6.9894    1.2436 H         1 <0>         0.1227
     45 H10        -1.9634   -6.2040   -0.0578 H         1 <0>         0.0602
     46 H11        -1.3606   -8.5207   -0.6872 H         1 <0>         0.1342
     47 H12         0.3616   -8.1449   -0.4401 H         1 <0>         0.1380
     48 H13         0.3336   -3.5895    0.8669 H         1 <0>         0.1021
     49 H14        -1.3368   -4.1868    1.0131 H         1 <0>         0.0599
     50 H15        -2.0571   -5.1640    3.0064 H         1 <0>         0.1302
     51 H16         0.7569   -6.1133    6.0836 H         1 <0>         0.1569
     52 H17         2.6053   -5.5367    4.5649 H         1 <0>         0.1404
     53 H18        -2.6571   -6.3361    5.1421 H         1 <0>         0.4205
     54 H19         0.9381   -4.4398    9.6955 H         1 <0>         0.1414
     55 H20         0.1130   -4.6986   11.9920 H         1 <0>         0.1404
     56 H21        -3.4803   -6.4998   10.5391 H         1 <0>         0.1274
     57 H22        -3.6433   -5.3747   15.4090 H         1 <0>         0.1596
     58 H23        -4.1708   -6.9303   17.4343 H         1 <0>         0.1876
     59 H24        -0.8843   -9.9600   12.6489 H         1 <0>         0.2044
     60 H25        -1.4156   -6.8226   -2.3665 H         1 <0>         0.4219
     61 H26        -3.4470   -6.6435    7.6352 H         1 <0>         0.4233
@<TRIPOS>BOND
     1    1    2 1
     2    1   37 1
     3    1   38 1
     4    1   39 1
     5    2    7 1
     6    2    3 1
     7    2   60 1
     8    3    4 1
     9    3   40 1
    10    3   41 1
    11    4    5 1
    12    4   42 1
    13    4   43 1
    14    5    6 1
    15    5    8 1
    16    6    7 1
    17    6   44 1
    18    6   45 1
    19    7   46 1
    20    7   47 1
    21    8    9 1
    22    8   48 1
    23    8   49 1
    24    9   14 ar
    25    9   10 ar
    26   10   11 ar
    27   10   50 1
    28   11   12 ar
    29   11   16 1
    30   12   13 ar
    31   12   51 1
    32   13   14 ar
    33   13   52 1
    34   14   15 1
    35   16   17 1
    36   16   53 1
    37   17   25 1
    38   17   18 2
    39   18   19 1
    40   19   24 ar
    41   19   20 ar
    42   20   21 ar
    43   20   54 1
    44   21   22 ar
    45   21   55 1
    46   22   23 ar
    47   22   26 1
    48   23   24 ar
    49   23   56 1
    50   24   25 1
    51   25   61 1
    52   26   27 1
    53   27   36 ar
    54   27   28 ar
    55   28   33 ar
    56   28   29 1
    57   29   30 2
    58   29   57 1
    59   30   31 1
    60   30   58 1
    61   31   32 1
    62   31   33 1
    63   33   34 ar
    64   34   35 ar
    65   35   36 ar
    66   35   59 1
@<TRIPOS>MOLECULE
CHEMBL231371__1
   61    66     0     0     0
SMALL
USER_CHARGES

@<TRIPOS>ATOM
      1 C1         -0.2313   -7.8847   -3.0170 C.3       1 <0>        -0.0456
      2 N1         -0.6814   -6.8950   -2.0291 N.4       1 <0>        -0.3880
      3 C2          0.0362   -5.6310   -2.2408 C.3       1 <0>        -0.0021
      4 C3         -0.4459   -4.5940   -1.2240 C.3       1 <0>         0.0268
      5 N2         -0.2006   -5.0947    0.1359 N.3       1 <0>        -0.5292
      6 C4         -0.8927   -6.3727    0.3544 C.3       1 <0>         0.0230
      7 C5         -0.4070   -7.3950   -0.6755 C.3       1 <0>        -0.0021
      8 C6         -0.5988   -4.1015    1.1423 C.3       1 <0>         0.0998
      9 C7         -0.1828   -4.5779    2.5102 C.ar      1 <0>        -0.0670
     10 C8         -1.1202   -5.1231    3.3656 C.ar      1 <0>        -0.1443
     11 C9         -0.7361   -5.5623    4.6258 C.ar      1 <0>         0.1869
     12 C10         0.5906   -5.4519    5.0225 C.ar      1 <0>        -0.1069
     13 C11         1.5236   -4.9060    4.1633 C.ar      1 <0>        -0.0815
     14 C12         1.1390   -4.4739    2.9059 C.ar      1 <0>        -0.0340
     15 Cl1         2.3158   -3.7941    1.8258 Cl        1 <0>        -0.0588
     16 N3         -1.6833   -6.1145    5.4942 N.pl3     1 <0>        -0.6432
     17 C13        -1.2901   -7.0195    6.4592 C.2       1 <0>         0.5293
     18 N4         -2.1062   -7.5482    7.4178 N.pl3     1 <0>        -0.6131
     19 H1         -3.0494   -7.3575    7.5397 H         1 <0>         0.4246
     20 C14        -1.3352   -8.4090    8.1843 C.ar      1 <0>         0.0540
     21 C15        -1.5996   -9.2178    9.2792 C.ar      1 <0>        -0.0874
     22 C16        -0.5908   -9.9780    9.8327 C.ar      1 <0>        -0.0984
     23 C17         0.6938   -9.9386    9.2990 C.ar      1 <0>         0.0959
     24 C18         0.9729   -9.1378    8.2085 C.ar      1 <0>        -0.0668
     25 C19        -0.0415   -8.3639    7.6394 C.ar      1 <0>         0.0874
     26 N5         -0.0798   -7.5035    6.5883 N.2       1 <0>        -0.5198
     27 O1          1.6799  -10.6921    9.8544 O.3       1 <0>        -0.2320
     28 C20         1.6776  -12.0239    9.6082 C.ar      1 <0>         0.4126
     29 C21         2.6011  -12.8715   10.2346 C.ar      1 <0>        -0.2210
     30 C22         3.6915  -12.6895   11.1912 C.2       1 <0>        -0.1580
     31 C23         4.2185  -13.9043   11.4152 C.2       1 <0>         0.0510
     32 N6          3.5490  -14.8450   10.6762 N.pl3     1 <0>        -0.5667
     33 H2          3.7487  -15.7942   10.6720 H         1 <0>         0.4273
     34 C24         2.5579  -14.2489    9.9460 C.ar      1 <0>         0.3402
     35 N7          1.6403  -14.6906    9.0882 N.ar      1 <0>        -0.5459
     36 C25         0.7935  -13.8574    8.5236 C.ar      1 <0>         0.3529
     37 N8          0.7965  -12.5597    8.7713 N.ar      1 <0>        -0.5820
     38 H3         -0.7647   -8.8224   -2.8608 H         1 <0>         0.1235
     39 H4         -0.4349   -7.5138   -4.0215 H         1 <0>         0.1240
     40 H5          0.8395   -8.0522   -2.9015 H         1 <0>         0.1232
     41 H6          1.1062   -5.7949   -2.1132 H         1 <0>         0.1383
     42 H7         -0.1578   -5.2677   -3.2500 H         1 <0>         0.1357
     43 H8          0.0971   -3.6604   -1.3713 H         1 <0>         0.1246
     44 H9         -1.5132   -4.4197   -1.3604 H         1 <0>         0.0608
     45 H10        -0.6757   -6.7368    1.3586 H         1 <0>         0.1248
     46 H11        -1.9674   -6.2277    0.2440 H         1 <0>         0.0594
     47 H12        -0.9295   -8.3395   -0.5242 H         1 <0>         0.1344
     48 H13         0.6653   -7.5498   -0.5558 H         1 <0>         0.1383
     49 H14        -0.1133   -3.1499    0.9258 H         1 <0>         0.1036
     50 H15        -1.6807   -3.9716    1.1164 H         1 <0>         0.0578
     51 H16        -2.1511   -5.2075    3.0548 H         1 <0>         0.1302
     52 H17         0.8920   -5.7923    6.0021 H         1 <0>         0.1604
     53 H18         2.5552   -4.8198    4.4712 H         1 <0>         0.1407
     54 H19        -2.6166   -5.8613    5.4183 H         1 <0>         0.4220
     55 H20        -2.5944   -9.2521    9.6982 H         1 <0>         0.1328
     56 H21        -0.7989  -10.6073   10.6854 H         1 <0>         0.1365
     57 H22         1.9714   -9.1099    7.7977 H         1 <0>         0.1385
     58 H23         4.0119  -11.7573   11.6326 H         1 <0>         0.1597
     59 H24         5.0462  -14.1093   12.0779 H         1 <0>         0.1875
     60 H25         0.0628  -14.2510    7.8324 H         1 <0>         0.2039
     61 H26        -1.6728   -6.7404   -2.1357 H         1 <0>         0.4216
@<TRIPOS>BOND
     1    1    2 1
     2    1   38 1
     3    1   39 1
     4    1   40 1
     5    2    7 1
     6    2    3 1
     7    2   61 1
     8    3    4 1
     9    3   41 1
    10    3   42 1
    11    4    5 1
    12    4   43 1
    13    4   44 1
    14    5    6 1
    15    5    8 1
    16    6    7 1
    17    6   45 1
    18    6   46 1
    19    7   47 1
    20    7   48 1
    21    8    9 1
    22    8   49 1
    23    8   50 1
    24    9   14 ar
    25    9   10 ar
    26   10   11 ar
    27   10   51 1
    28   11   12 ar
    29   11   16 1
    30   12   13 ar
    31   12   52 1
    32   13   14 ar
    33   13   53 1
    34   14   15 1
    35   16   17 1
    36   16   54 1
    37   17   26 2
    38   17   18 1
    39   18   19 1
    40   18   20 1
    41   20   25 ar
    42   20   21 ar
    43   21   22 ar
    44   21   55 1
    45   22   23 ar
    46   22   56 1
    47   23   24 ar
    48   23   27 1
    49   24   25 ar
    50   24   57 1
    51   25   26 1
    52   27   28 1
    53   28   37 ar
    54   28   29 ar
    55   29   34 ar
    56   29   30 1
    57   30   31 2
    58   30   58 1
    59   31   32 1
    60   31   59 1
    61   32   33 1
    62   32   34 1
    63   34   35 ar
    64   35   36 ar
    65   36   37 ar
    66   36   60 1
@<TRIPOS>MOLECULE
CHEMBL254964
   60    64     0     0     0
SMALL
USER_CHARGES

@<TRIPOS>ATOM
      1 C1         10.8471    0.9819   -3.5872 C.ar      1 <0>        -0.1128
      2 C2         10.7653   -0.3972   -3.5378 C.ar      1 <0>        -0.1181
      3 C3          9.7515   -1.0042   -2.8205 C.ar      1 <0>        -0.1014
      4 C4          8.8197   -0.2322   -2.1523 C.ar      1 <0>        -0.0804
      5 C5          8.9019    1.1468   -2.2009 C.ar      1 <0>        -0.1014
      6 C6          9.9149    1.7539   -2.9194 C.ar      1 <0>        -0.1181
      7 C7          7.7138   -0.8940   -1.3711 C.3       1 <0>        -0.0930
      8 C8          8.1684   -1.1234    0.0473 C.2       1 <0>         0.4823
      9 O1          9.2805   -0.7830    0.3899 O.2       1 <0>        -0.3883
     10 N1          7.3388   -1.7068    0.9348 N.am      1 <0>        -0.6407
     11 C9          7.7454   -1.9119    2.2033 C.2       1 <0>         0.5053
     12 S1          9.3157   -1.4313    2.6872 S.2       1 <0>        -0.4710
     13 N2          6.9157   -2.4953    3.0909 N.pl3     1 <0>        -0.6252
     14 C10         7.3760   -2.8147    4.3744 C.ar      1 <0>         0.1661
     15 C11         6.5607   -2.6001    5.4780 C.ar      1 <0>        -0.1175
     16 C12         7.0140   -2.9154    6.7439 C.ar      1 <0>        -0.0790
     17 C13         8.2838   -3.4463    6.9143 C.ar      1 <0>         0.0434
     18 C14         9.1008   -3.6617    5.8114 C.ar      1 <0>         0.1097
     19 C15         8.6453   -3.3515    4.5433 C.ar      1 <0>        -0.1024
     20 F1         10.3378   -4.1788    5.9774 F         1 <0>        -0.1183
     21 O2          8.7296   -3.7556    8.1614 O.3       1 <0>        -0.2371
     22 C16         9.4947   -2.8410    8.8097 C.ar      1 <0>         0.2061
     23 C17         9.8928   -1.6647    8.1826 C.ar      1 <0>        -0.2221
     24 C18        10.6739   -0.7679    8.8967 C.ar      1 <0>         0.1601
     25 N3         11.0456   -0.9894   10.1301 N.ar      1 <0>        -0.4664
     26 C19        10.6994   -2.1086   10.8081 C.ar      1 <0>         0.1394
     27 C20         9.8993   -3.0468   10.1196 C.ar      1 <0>        -0.2016
     28 S2          9.6541   -4.3391   11.3101 S.3       1 <0>         0.1263
     29 C21        10.5833   -3.6269   12.6571 C.2       1 <0>        -0.1673
     30 C22        11.0357   -2.4581   12.1279 C.2       1 <0>        -0.0583
     31 C23        10.8127   -4.1739   14.0039 C.2       1 <0>         0.6170
     32 O3         11.4777   -3.5498   14.8087 O.2       1 <0>        -0.5130
     33 N4         10.2860   -5.3666   14.3456 N.am      1 <0>        -0.6115
     34 C24         9.4719   -6.2253   13.4730 C.3       1 <0>         0.0839
     35 C25         9.0730   -7.4681   14.2963 C.3       1 <0>        -0.1275
     36 C26         9.2103   -6.9737   15.7606 C.3       1 <0>        -0.1344
     37 C27        10.4362   -6.0291   15.6540 C.3       1 <0>         0.1063
     38 H1         11.6418    1.4561   -4.1439 H         1 <0>         0.1233
     39 H2         11.4934   -1.0003   -4.0599 H         1 <0>         0.1239
     40 H3          9.6872   -2.0816   -2.7825 H         1 <0>         0.1202
     41 H4          8.1737    1.7499   -1.6791 H         1 <0>         0.1202
     42 H5          9.9790    2.8313   -2.9577 H         1 <0>         0.1239
     43 H6          6.8338   -0.2509   -1.3711 H         1 <0>         0.1094
     44 H7          7.4652   -1.8500   -1.8320 H         1 <0>         0.1093
     45 H8          6.4491   -1.9791    0.6607 H         1 <0>         0.4127
     46 H9          5.9998   -2.6939    2.8407 H         1 <0>         0.4134
     47 H10         5.5720   -2.1860    5.3462 H         1 <0>         0.1456
     48 H11         6.3793   -2.7481    7.6016 H         1 <0>         0.1520
     49 H12         9.2781   -3.5228    3.6850 H         1 <0>         0.1639
     50 H13         9.6011   -1.4549    7.1641 H         1 <0>         0.1529
     51 H14        10.9867    0.1470    8.4157 H         1 <0>         0.1711
     52 H15        11.6423   -1.7935   12.7252 H         1 <0>         0.1614
     53 H16         8.5780   -5.6889   13.1547 H         1 <0>         0.0783
     54 H17        10.0544   -6.5283   12.6030 H         1 <0>         0.0787
     55 H18         8.0445   -7.7586   14.0823 H         1 <0>         0.0881
     56 H19         9.7566   -8.2947   14.1027 H         1 <0>         0.0821
     57 H20         8.3196   -6.4294   16.0744 H         1 <0>         0.0798
     58 H21         9.4168   -7.8042   16.4357 H         1 <0>         0.0902
     59 H22        11.3632   -6.6017   15.6850 H         1 <0>         0.0757
     60 H23        10.4176   -5.2920   16.4568 H         1 <0>         0.0850
@<TRIPOS>BOND
     1    1    6 ar
     2    1    2 ar
     3    1   38 1
     4    2    3 ar
     5    2   39 1
     6    3    4 ar
     7    3   40 1
     8    4    5 ar
     9    4    7 1
    10    5    6 ar
    11    5   41 1
    12    6   42 1
    13    7    8 1
    14    7   43 1
    15    7   44 1
    16    8    9 2
    17    8   10 am
    18   10   11 1
    19   10   45 1
    20   11   12 2
    21   11   13 1
    22   13   14 1
    23   13   46 1
    24   14   19 ar
    25   14   15 ar
    26   15   16 ar
    27   15   47 1
    28   16   17 ar
    29   16   48 1
    30   17   18 ar
    31   17   21 1
    32   18   19 ar
    33   18   20 1
    34   19   49 1
    35   21   22 1
    36   22   27 ar
    37   22   23 ar
    38   23   24 ar
    39   23   50 1
    40   24   25 ar
    41   24   51 1
    42   25   26 ar
    43   26   30 1
    44   26   27 ar
    45   27   28 1
    46   28   29 1
    47   29   30 2
    48   29   31 1
    49   30   52 1
    50   31   32 2
    51   31   33 am
    52   33   37 1
    53   33   34 1
    54   34   35 1
    55   34   53 1
    56   34   54 1
    57   35   36 1
    58   35   55 1
    59   35   56 1
    60   36   37 1
    61   36   57 1
    62   36   58 1
    63   37   59 1
    64   37   60 1
@<TRIPOS>MOLECULE
CHEMBL254760
   56    60     0     0     0
SMALL
USER_CHARGES

@<TRIPOS>ATOM
      1 C1          0.7002    0.0921    1.3580 C.3       1 <0>         0.0698
      2 N1         -0.1273   -0.1933    0.1832 N.pl3     1 <0>        -0.4614
      3 C2          0.0748   -1.1939   -0.7248 C.2       1 <0>        -0.0135
      4 C3         -0.9230   -1.0943   -1.6451 C.2       1 <0>         0.0613
      5 N2         -1.7059   -0.0530   -1.2921 N.2       1 <0>        -0.4686
      6 C4         -1.2389    0.4838   -0.2002 C.2       1 <0>         0.1965
      7 C5         -1.1149   -1.9698   -2.8208 C.2       1 <0>        -0.0123
      8 C6         -2.0848   -1.9126   -3.7696 C.2       1 <0>        -0.1341
      9 C7         -2.0950   -2.8470   -4.8221 C.ar      1 <0>         0.1648
     10 C8         -1.0523   -3.7987   -4.7945 C.ar      1 <0>        -0.2081
     11 S1         -0.1248   -3.3579   -3.3478 S.3       1 <0>         0.1024
     12 C9         -0.9329   -4.7786   -5.7623 C.ar      1 <0>         0.2123
     13 C10        -1.8813   -4.8066   -6.7836 C.ar      1 <0>        -0.2368
     14 C11        -2.8874   -3.8558   -6.7741 C.ar      1 <0>         0.1599
     15 N3         -2.9763   -2.9381   -5.8446 N.ar      1 <0>        -0.4767
     16 O1          0.0767   -5.6851   -5.7196 O.3       1 <0>        -0.2386
     17 C12         0.0762   -6.6852   -6.6413 C.ar      1 <0>         0.0542
     18 C13        -0.3566   -7.9542   -6.2871 C.ar      1 <0>        -0.0809
     19 C14        -0.3574   -8.9705   -7.2223 C.ar      1 <0>        -0.0633
     20 C15         0.0752   -8.7224   -8.5184 C.ar      1 <0>         0.1556
     21 C16         0.5087   -7.4523   -8.8742 C.ar      1 <0>        -0.1432
     22 C17         0.5040   -6.4339   -7.9390 C.ar      1 <0>         0.0970
     23 F1          0.9205   -5.1963   -8.2856 F         1 <0>        -0.1213
     24 N4          0.0746   -9.7534   -9.4663 N.pl3     1 <0>        -0.6250
     25 C18        -1.0017  -10.5553   -9.5891 C.2       1 <0>         0.5081
     26 S2         -2.3206  -10.3891   -8.5103 S.2       1 <0>        -0.4739
     27 N5         -1.0396  -11.4881  -10.5611 N.am      1 <0>        -0.6416
     28 C19        -2.1159  -12.2901  -10.6839 C.2       1 <0>         0.4828
     29 O2         -3.0499  -12.1723   -9.9199 O.2       1 <0>        -0.3888
     30 C20        -2.1583  -13.3331  -11.7708 C.3       1 <0>        -0.0933
     31 C21        -3.4594  -14.0892  -11.6909 C.ar      1 <0>        -0.0802
     32 C22        -3.5517  -15.2254  -10.9089 C.ar      1 <0>        -0.1013
     33 C23        -4.7452  -15.9190  -10.8356 C.ar      1 <0>        -0.1183
     34 C24        -5.8466  -15.4761  -11.5439 C.ar      1 <0>        -0.1130
     35 C25        -5.7546  -14.3394  -12.3252 C.ar      1 <0>        -0.1181
     36 C26        -4.5623  -13.6434  -12.3951 C.ar      1 <0>        -0.1012
     37 H1          0.3247   -0.4710    2.2124 H         1 <0>         0.0824
     38 H2          1.7310   -0.1989    1.1557 H         1 <0>         0.0894
     39 H3          0.6606    1.1585    1.5799 H         1 <0>         0.0932
     40 H4          0.8721   -1.9223   -0.7147 H         1 <0>         0.1824
     41 H5         -1.6658    1.3318    0.3145 H         1 <0>         0.2145
     42 H6         -2.8482   -1.1505   -3.7164 H         1 <0>         0.1546
     43 H7         -1.8320   -5.5519   -7.5637 H         1 <0>         0.1473
     44 H8         -3.6256   -3.8714   -7.5622 H         1 <0>         0.1669
     45 H9         -0.6929   -8.1480   -5.2792 H         1 <0>         0.1527
     46 H10        -0.6944   -9.9585   -6.9455 H         1 <0>         0.1627
     47 H11         0.8457   -7.2589   -9.8819 H         1 <0>         0.1488
     48 H12         0.8487   -9.8902  -10.0345 H         1 <0>         0.4120
     49 H13        -0.2923  -11.5823  -11.1724 H         1 <0>         0.4125
     50 H14        -2.0793  -12.8476  -12.7435 H         1 <0>         0.1092
     51 H15        -1.3269  -14.0261  -11.6420 H         1 <0>         0.1092
     52 H16        -2.6912  -15.5714  -10.3556 H         1 <0>         0.1202
     53 H17        -4.8170  -16.8070  -10.2253 H         1 <0>         0.1237
     54 H18        -6.7788  -16.0184  -11.4872 H         1 <0>         0.1232
     55 H19        -6.6150  -13.9936  -12.8788 H         1 <0>         0.1238
     56 H20        -4.4914  -12.7532  -13.0025 H         1 <0>         0.1202
@<TRIPOS>BOND
     1    1    2 1
     2    1   37 1
     3    1   38 1
     4    1   39 1
     5    2    6 1
     6    2    3 1
     7    3    4 2
     8    3   40 1
     9    4    5 1
    10    4    7 1
    11    5    6 2
    12    6   41 1
    13    7   11 1
    14    7    8 2
    15    8    9 1
    16    8   42 1
    17    9   15 ar
    18    9   10 ar
    19   10   11 1
    20   10   12 ar
    21   12   13 ar
    22   12   16 1
    23   13   14 ar
    24   13   43 1
    25   14   15 ar
    26   14   44 1
    27   16   17 1
    28   17   22 ar
    29   17   18 ar
    30   18   19 ar
    31   18   45 1
    32   19   20 ar
    33   19   46 1
    34   20   21 ar
    35   20   24 1
    36   21   22 ar
    37   21   47 1
    38   22   23 1
    39   24   25 1
    40   24   48 1
    41   25   26 2
    42   25   27 1
    43   27   28 am
    44   27   49 1
    45   28   29 2
    46   28   30 1
    47   30   31 1
    48   30   50 1
    49   30   51 1
    50   31   36 ar
    51   31   32 ar
    52   32   33 ar
    53   32   52 1
    54   33   34 ar
    55   33   53 1
    56   34   35 ar
    57   34   54 1
    58   35   36 ar
    59   35   55 1
    60   36   56 1
@<TRIPOS>MOLECULE
CHEMBL254760__1
   57    61     0     0     0
SMALL
USER_CHARGES

@<TRIPOS>ATOM
      1 C1          0.7002    0.0921    1.3580 C.3       1 <0>         0.0541
      2 N1         -0.1273   -0.1933    0.1832 N.pl3     1 <0>        -0.4064
      3 C2          0.0748   -1.1939   -0.7248 C.2       1 <0>         0.0495
      4 C3         -0.9230   -1.0943   -1.6451 C.2       1 <0>         0.1233
      5 N2         -1.7059   -0.0530   -1.2921 N.pl3     1 <0>        -0.4713
      6 C4         -1.2389    0.4838   -0.2002 C.cat     1 <0>         0.3041
      7 C5         -1.1149   -1.9698   -2.8208 C.2       1 <0>        -0.1214
      8 C6         -2.0848   -1.9126   -3.7696 C.2       1 <0>        -0.0817
      9 C7         -2.0950   -2.8470   -4.8221 C.ar      1 <0>         0.1377
     10 C8         -1.0523   -3.7987   -4.7945 C.ar      1 <0>        -0.1928
     11 S1         -0.1248   -3.3579   -3.3478 S.3       1 <0>         0.1704
     12 C9         -0.9329   -4.7786   -5.7623 C.ar      1 <0>         0.2109
     13 C10        -1.8813   -4.8066   -6.7836 C.ar      1 <0>        -0.2105
     14 C11        -2.8874   -3.8558   -6.7741 C.ar      1 <0>         0.1679
     15 N3         -2.9763   -2.9381   -5.8446 N.ar      1 <0>        -0.4677
     16 O1          0.0767   -5.6851   -5.7196 O.3       1 <0>        -0.2345
     17 C12         0.0762   -6.6852   -6.6413 C.ar      1 <0>         0.0407
     18 C13        -0.3566   -7.9542   -6.2871 C.ar      1 <0>        -0.0780
     19 C14        -0.3574   -8.9705   -7.2223 C.ar      1 <0>        -0.0630
     20 C15         0.0752   -8.7224   -8.5184 C.ar      1 <0>         0.1665
     21 C16         0.5087   -7.4523   -8.8742 C.ar      1 <0>        -0.1428
     22 C17         0.5040   -6.4339   -7.9390 C.ar      1 <0>         0.0986
     23 F1          0.9205   -5.1963   -8.2856 F         1 <0>        -0.1222
     24 N4          0.0746   -9.7534   -9.4663 N.pl3     1 <0>        -0.6282
     25 C18        -1.0017  -10.5553   -9.5891 C.2       1 <0>         0.5099
     26 S2         -2.3206  -10.3891   -8.5103 S.2       1 <0>        -0.4750
     27 N5         -1.0396  -11.4881  -10.5611 N.am      1 <0>        -0.6400
     28 C19        -2.1159  -12.2901  -10.6839 C.2       1 <0>         0.4833
     29 O2         -3.0499  -12.1723   -9.9199 O.2       1 <0>        -0.3880
     30 C20        -2.1583  -13.3331  -11.7708 C.3       1 <0>        -0.0928
     31 C21        -3.4594  -14.0892  -11.6909 C.ar      1 <0>        -0.0821
     32 C22        -3.5517  -15.2254  -10.9089 C.ar      1 <0>        -0.1013
     33 C23        -4.7452  -15.9190  -10.8356 C.ar      1 <0>        -0.1178
     34 C24        -5.8466  -15.4761  -11.5439 C.ar      1 <0>        -0.1118
     35 C25        -5.7546  -14.3394  -12.3252 C.ar      1 <0>        -0.1179
     36 C26        -4.5623  -13.6434  -12.3951 C.ar      1 <0>        -0.1014
     37 H1          0.3247   -0.4710    2.2124 H         1 <0>         0.1143
     38 H2          1.7310   -0.1989    1.1557 H         1 <0>         0.1202
     39 H3          0.6606    1.1585    1.5799 H         1 <0>         0.1190
     40 H4          0.8721   -1.9223   -0.7147 H         1 <0>         0.2279
     41 H5         -1.6658    1.3318    0.3145 H         1 <0>         0.2688
     42 H6         -2.8482   -1.1505   -3.7164 H         1 <0>         0.1498
     43 H7         -1.8320   -5.5519   -7.5637 H         1 <0>         0.1572
     44 H8         -3.6256   -3.8714   -7.5622 H         1 <0>         0.1768
     45 H9         -0.6929   -8.1480   -5.2792 H         1 <0>         0.1530
     46 H10        -0.6944   -9.9585   -6.9455 H         1 <0>         0.1655
     47 H11         0.8457   -7.2589   -9.8819 H         1 <0>         0.1518
     48 H12         0.8487   -9.8902  -10.0345 H         1 <0>         0.4141
     49 H13        -0.2923  -11.5823  -11.1724 H         1 <0>         0.4141
     50 H14        -2.0793  -12.8476  -12.7435 H         1 <0>         0.1101
     51 H15        -1.3269  -14.0261  -11.6420 H         1 <0>         0.1103
     52 H16        -2.6912  -15.5714  -10.3556 H         1 <0>         0.1201
     53 H17        -4.8170  -16.8070  -10.2253 H         1 <0>         0.1244
     54 H18        -6.7788  -16.0184  -11.4872 H         1 <0>         0.1240
     55 H19        -6.6150  -13.9936  -12.8788 H         1 <0>         0.1243
     56 H20        -4.4914  -12.7532  -13.0025 H         1 <0>         0.1200
     57 H21        -2.4935    0.2461   -1.7728 H         1 <0>         0.4660
@<TRIPOS>BOND
     1    1    2 1
     2    1   37 1
     3    1   38 1
     4    1   39 1
     5    2    6 1
     6    2    3 1
     7    3    4 2
     8    3   40 1
     9    4    5 1
    10    4    7 1
    11    5    6 2
    12    5   57 1
    13    6   41 1
    14    7   11 1
    15    7    8 2
    16    8    9 1
    17    8   42 1
    18    9   15 ar
    19    9   10 ar
    20   10   11 1
    21   10   12 ar
    22   12   13 ar
    23   12   16 1
    24   13   14 ar
    25   13   43 1
    26   14   15 ar
    27   14   44 1
    28   16   17 1
    29   17   22 ar
    30   17   18 ar
    31   18   19 ar
    32   18   45 1
    33   19   20 ar
    34   19   46 1
    35   20   21 ar
    36   20   24 1
    37   21   22 ar
    38   21   47 1
    39   22   23 1
    40   24   25 1
    41   24   48 1
    42   25   26 2
    43   25   27 1
    44   27   28 am
    45   27   49 1
    46   28   29 2
    47   28   30 1
    48   30   31 1
    49   30   50 1
    50   30   51 1
    51   31   36 ar
    52   31   32 ar
    53   32   33 ar
    54   32   52 1
    55   33   34 ar
    56   33   53 1
    57   34   35 ar
    58   34   54 1
    59   35   36 ar
    60   35   55 1
    61   36   56 1
@<TRIPOS>MOLECULE
CHEMBL365815
   53    56     0     0     0
SMALL
USER_CHARGES

@<TRIPOS>ATOM
      1 C1          0.4895    1.5445    0.8694 C.3       1 <0>        -0.1501
      2 C2          0.4955    0.0149    0.8355 C.3       1 <0>        -0.6095
      3 S1          1.4858   -0.6167    2.2179 S.o2      1 <0>         2.4980
      4 O1          2.8562   -0.2938    2.0259 O.2       1 <0>        -0.9276
      5 O2          0.8407   -0.3332    3.4519 O.2       1 <0>        -0.9380
      6 C3          1.4113   -2.3704    2.0642 C.ar      1 <0>        -0.6685
      7 C4          0.4006   -3.0754    2.6915 C.ar      1 <0>        -0.0078
      8 C5          0.3372   -4.4517    2.5750 C.ar      1 <0>        -0.2010
      9 C6          1.2876   -5.1285    1.8283 C.ar      1 <0>         0.1466
     10 C7          2.3060   -4.4189    1.1955 C.ar      1 <0>         0.1273
     11 C8          2.3599   -3.0374    1.3124 C.ar      1 <0>        -0.0423
     12 N1          3.2695   -5.0976    0.4394 N.pl3     1 <0>        -0.6049
     13 C9          4.1855   -4.3869   -0.3092 C.2       1 <0>         0.4546
     14 N2          4.3066   -3.0803   -0.3281 N.2       1 <0>        -0.5176
     15 C10         5.2995   -2.7496   -1.1686 C.2       1 <0>         0.0237
     16 C11         5.8036   -3.8994   -1.6824 C.2       1 <0>        -0.0329
     17 O3          5.1023   -4.9193   -1.1329 O.3       1 <0>        -0.2069
     18 C12         6.9115   -4.0169   -2.6524 C.ar      1 <0>         0.0087
     19 C13         7.5527   -2.8691   -3.1259 C.ar      1 <0>        -0.1005
     20 C14         8.5877   -2.9777   -4.0326 C.ar      1 <0>        -0.1013
     21 C15         8.9966   -4.2195   -4.4780 C.ar      1 <0>        -0.1254
     22 C16         8.3648   -5.3746   -4.0132 C.ar      1 <0>        -0.0002
     23 C17         7.3237   -5.2733   -3.0933 C.ar      1 <0>        -0.0893
     24 C18         8.8038   -6.7034   -4.4924 C.2       1 <0>         0.0036
     25 C19         8.5714   -7.9026   -3.8931 C.2       1 <0>         0.0026
     26 N3          9.1353   -8.8543   -4.6458 N.2       1 <0>        -0.4915
     27 C20         9.7077   -8.3077   -5.6845 C.2       1 <0>         0.1928
     28 N4          9.5227   -6.9707   -5.6354 N.pl3     1 <0>        -0.4561
     29 C21        10.0001   -5.9894   -6.6128 C.3       1 <0>         0.0630
     30 O4          1.2269   -6.4822    1.7135 O.3       1 <0>        -0.3176
     31 C22         0.1556   -7.1432    2.3897 C.3       1 <0>         0.0254
     32 H1          1.5114    1.9138    0.7828 H         1 <0>         0.0751
     33 H2         -0.1055    1.9240    0.0387 H         1 <0>         0.0844
     34 H3          0.0585    1.8854    1.8107 H         1 <0>         0.0740
     35 H4         -0.5264   -0.3544    0.9221 H         1 <0>         0.1339
     36 H5          0.9265   -0.3261   -0.1058 H         1 <0>         0.1361
     37 H6         -0.3411   -2.5495    3.2744 H         1 <0>         0.1470
     38 H7         -0.4534   -4.9992    3.0665 H         1 <0>         0.1457
     39 H8          3.1455   -2.4838    0.8196 H         1 <0>         0.2107
     40 H9          3.2931   -6.0673    0.4418 H         1 <0>         0.4331
     41 H10         5.6360   -1.7487   -1.3953 H         1 <0>         0.1947
     42 H11         7.2375   -1.8950   -2.7819 H         1 <0>         0.1343
     43 H12         9.0798   -2.0875   -4.3958 H         1 <0>         0.1350
     44 H13         9.8069   -4.2972   -5.1879 H         1 <0>         0.1278
     45 H14         6.8349   -6.1640   -2.7271 H         1 <0>         0.1323
     46 H15         8.0280   -8.0586   -2.9730 H         1 <0>         0.1722
     47 H16        10.2394   -8.8393   -6.4599 H         1 <0>         0.2096
     48 H17        10.9468   -5.5691   -6.2731 H         1 <0>         0.0817
     49 H18        10.1443   -6.4772   -7.5768 H         1 <0>         0.0936
     50 H19         9.2646   -5.1916   -6.7157 H         1 <0>         0.0904
     51 H20         0.2221   -6.9426    3.4590 H         1 <0>         0.0626
     52 H21        -0.7969   -6.7741    2.0093 H         1 <0>         0.0621
     53 H22         0.2243   -8.2172    2.2165 H         1 <0>         0.1069
@<TRIPOS>BOND
     1    1    2 1
     2    1   32 1
     3    1   33 1
     4    1   34 1
     5    2    3 1
     6    2   35 1
     7    2   36 1
     8    3    4 2
     9    3    5 2
    10    3    6 1
    11    6   11 ar
    12    6    7 ar
    13    7    8 ar
    14    7   37 1
    15    8    9 ar
    16    8   38 1
    17    9   10 ar
    18    9   30 1
    19   10   11 ar
    20   10   12 1
    21   11   39 1
    22   12   13 1
    23   12   40 1
    24   13   17 1
    25   13   14 2
    26   14   15 1
    27   15   16 2
    28   15   41 1
    29   16   17 1
    30   16   18 1
    31   18   23 ar
    32   18   19 ar
    33   19   20 ar
    34   19   42 1
    35   20   21 ar
    36   20   43 1
    37   21   22 ar
    38   21   44 1
    39   22   23 ar
    40   22   24 1
    41   23   45 1
    42   24   28 1
    43   24   25 2
    44   25   26 1
    45   25   46 1
    46   26   27 2
    47   27   28 1
    48   27   47 1
    49   28   29 1
    50   29   48 1
    51   29   49 1
    52   29   50 1
    53   30   31 1
    54   31   51 1
    55   31   52 1
    56   31   53 1
@<TRIPOS>MOLECULE
CHEMBL365815__1
   54    57     0     0     0
SMALL
USER_CHARGES

@<TRIPOS>ATOM
      1 C1         -1.0168    1.5287    0.0214 C.3       1 <0>        -0.1511
      2 C2         -0.9666   -0.0004    0.0129 C.3       1 <0>        -0.6080
      3 S1         -2.6489   -0.6615    0.1665 S.o2      1 <0>         2.4971
      4 O1         -3.1725   -0.3724    1.4555 O.2       1 <0>        -0.9287
      5 O2         -3.3996   -0.3662   -1.0033 O.2       1 <0>        -0.9343
      6 C3         -2.4512   -2.4122    0.1438 C.ar      1 <0>        -0.6694
      7 C4         -2.4785   -3.0938   -1.0589 C.ar      1 <0>        -0.0012
      8 C5         -2.3244   -4.4677   -1.0831 C.ar      1 <0>        -0.2007
      9 C6         -2.1421   -5.1655    0.0995 C.ar      1 <0>         0.1509
     10 C7         -2.1141   -4.4795    1.3119 C.ar      1 <0>         0.1169
     11 C8         -2.2638   -3.1002    1.3277 C.ar      1 <0>        -0.0389
     12 N1         -1.9302   -5.1795    2.5105 N.pl3     1 <0>        -0.6012
     13 C9         -1.7507   -4.4894    3.6921 C.2       1 <0>         0.4704
     14 N2         -1.8152   -3.1862    3.8325 N.2       1 <0>        -0.5186
     15 C10        -1.5886   -2.8776    5.1190 C.2       1 <0>         0.0479
     16 C11        -1.3776   -4.0379    5.7893 C.2       1 <0>        -0.0640
     17 O3         -1.4872   -5.0418    4.8870 O.3       1 <0>        -0.2124
     18 C12        -1.0894   -4.1798    7.2312 C.ar      1 <0>         0.0253
     19 C13        -1.0176   -3.0467    8.0460 C.ar      1 <0>        -0.0744
     20 C14        -0.7478   -3.1781    9.3933 C.ar      1 <0>        -0.0957
     21 C15        -0.5471   -4.4282    9.9452 C.ar      1 <0>        -0.1088
     22 C16        -0.6159   -5.5687    9.1427 C.ar      1 <0>        -0.0533
     23 C17        -0.8939   -5.4446    7.7834 C.ar      1 <0>        -0.0766
     24 C18        -0.3997   -6.9065    9.7358 C.2       1 <0>         0.1100
     25 C19        -0.7838   -8.1015    9.2110 C.2       1 <0>         0.0066
     26 N3         -0.3990   -9.0644   10.0565 N.pl3     1 <0>        -0.4695
     27 C20         0.2061   -8.5288   11.0824 C.cat     1 <0>         0.2893
     28 N4          0.2351   -7.1877   10.9244 N.pl3     1 <0>        -0.4074
     29 C21         0.8278   -6.2153   11.8460 C.3       1 <0>         0.0462
     30 O4         -1.9914   -6.5168    0.0773 O.3       1 <0>        -0.3197
     31 C22        -2.0313   -7.1531   -1.2016 C.3       1 <0>         0.0243
     32 H1         -0.0060    1.9259   -0.0710 H         1 <0>         0.0856
     33 H2         -1.6219    1.8771   -0.8156 H         1 <0>         0.0754
     34 H3         -1.4583    1.8725    0.9568 H         1 <0>         0.0751
     35 H4         -0.5252   -0.3443   -0.9226 H         1 <0>         0.1347
     36 H5         -0.3615   -0.3488    0.8499 H         1 <0>         0.1349
     37 H6         -2.6208   -2.5515   -1.9820 H         1 <0>         0.1497
     38 H7         -2.3465   -4.9969   -2.0243 H         1 <0>         0.1480
     39 H8         -2.2382   -2.5648    2.2653 H         1 <0>         0.2093
     40 H9         -1.9290   -6.1495    2.5104 H         1 <0>         0.4332
     41 H10        -1.5760   -1.8847    5.5437 H         1 <0>         0.1970
     42 H11        -1.1732   -2.0663    7.6207 H         1 <0>         0.1451
     43 H12        -0.6931   -2.2993   10.0187 H         1 <0>         0.1465
     44 H13        -0.3361   -4.5238   11.0001 H         1 <0>         0.1327
     45 H14        -0.9530   -6.3240    7.1593 H         1 <0>         0.1362
     46 H15        -1.3067   -8.2471    8.2773 H         1 <0>         0.2236
     47 H16         0.6202   -9.0709   11.9197 H         1 <0>         0.2641
     48 H17         0.0540   -5.8202   12.5042 H         1 <0>         0.1144
     49 H18         1.5982   -6.7032   12.4430 H         1 <0>         0.1209
     50 H19         1.2720   -5.3989   11.2765 H         1 <0>         0.1197
     51 H20        -2.9937   -6.9580   -1.6746 H         1 <0>         0.0645
     52 H21        -1.2316   -6.7589   -1.8287 H         1 <0>         0.0639
     53 H22        -1.8989   -8.2279   -1.0769 H         1 <0>         0.1077
     54 H23        -0.5471  -10.0143    9.9276 H         1 <0>         0.4668
@<TRIPOS>BOND
     1    1    2 1
     2    1   32 1
     3    1   33 1
     4    1   34 1
     5    2    3 1
     6    2   35 1
     7    2   36 1
     8    3    4 2
     9    3    5 2
    10    3    6 1
    11    6   11 ar
    12    6    7 ar
    13    7    8 ar
    14    7   37 1
    15    8    9 ar
    16    8   38 1
    17    9   10 ar
    18    9   30 1
    19   10   11 ar
    20   10   12 1
    21   11   39 1
    22   12   13 1
    23   12   40 1
    24   13   17 1
    25   13   14 2
    26   14   15 1
    27   15   16 2
    28   15   41 1
    29   16   17 1
    30   16   18 1
    31   18   23 ar
    32   18   19 ar
    33   19   20 ar
    34   19   42 1
    35   20   21 ar
    36   20   43 1
    37   21   22 ar
    38   21   44 1
    39   22   23 ar
    40   22   24 1
    41   23   45 1
    42   24   28 1
    43   24   25 2
    44   25   26 1
    45   25   46 1
    46   26   27 2
    47   26   54 1
    48   27   28 1
    49   27   47 1
    50   28   29 1
    51   29   48 1
    52   29   49 1
    53   29   50 1
    54   30   31 1
    55   31   51 1
    56   31   52 1
    57   31   53 1
@<TRIPOS>MOLECULE
CHEMBL231411
   49    53     0     0     0
SMALL
USER_CHARGES

@<TRIPOS>ATOM
      1 C1         -0.9884    0.7583    3.0508 C.ar      1 <0>        -0.1162
      2 C2          0.2223    1.3943    3.3190 C.ar      1 <0>        -0.1079
      3 C3          1.4046    0.8395    2.9366 C.ar      1 <0>        -0.1111
      4 C4          1.4083   -0.3933    2.2608 C.ar      1 <0>        -0.0336
      5 C5          2.6096   -0.9951    1.8519 C.ar      1 <0>        -0.1322
      6 C6          2.5727   -2.2034    1.1927 C.ar      1 <0>         0.1597
      7 C7          1.3520   -2.8352    0.9267 C.ar      1 <0>        -0.1139
      8 C8          0.1761   -2.2729    1.3118 C.ar      1 <0>        -0.0862
      9 C9          0.1769   -1.0402    1.9879 C.ar      1 <0>        -0.0604
     10 C10        -1.0235   -0.4359    2.3987 C.ar      1 <0>        -0.1026
     11 N1          3.7673   -2.8057    0.7840 N.am      1 <0>        -0.6775
     12 C11         3.8983   -4.1461    0.8356 C.2       1 <0>         0.7056
     13 O1          2.9522   -4.8373    1.1604 O.2       1 <0>        -0.5501
     14 N2          5.0779   -4.7203    0.5271 N.am      1 <0>        -0.6863
     15 C12         5.1880   -6.1151    0.4867 C.ar      1 <0>         0.1924
     16 C13         4.1291   -6.8809    0.0147 C.ar      1 <0>        -0.1196
     17 C14         4.2348   -8.2551   -0.0263 C.ar      1 <0>        -0.0887
     18 C15         5.4060   -8.8762    0.4065 C.ar      1 <0>        -0.0965
     19 C16         6.4673   -8.1051    0.8797 C.ar      1 <0>        -0.0687
     20 C17         6.3582   -6.7310    0.9132 C.ar      1 <0>        -0.1393
     21 C18         5.5224  -10.3533    0.3641 C.2       1 <0>        -0.0448
     22 C19         5.7949  -11.0554    1.4890 C.2       1 <0>        -0.1313
     23 S1          5.8299  -12.7466    0.9260 S.3       1 <0>         0.2066
     24 C20         5.4815  -12.4769   -0.7899 C.ar      1 <0>        -0.0583
     25 C21         5.3392  -11.0772   -0.8905 C.ar      1 <0>        -0.1463
     26 C22         5.0459  -10.5788   -2.1858 C.ar      1 <0>         0.5042
     27 N3          4.9156  -11.3976   -3.2088 N.ar      1 <0>        -0.5047
     28 C23         5.0458  -12.7114   -3.1071 C.ar      1 <0>         0.1289
     29 C24         5.3387  -13.2885   -1.9006 C.ar      1 <0>        -0.1007
     30 N4          4.8939   -9.2123   -2.3769 N.pl3     1 <0>        -0.8234
     31 H1         -1.9125    1.2177    3.3691 H         1 <0>         0.1259
     32 H2          0.2222    2.3416    3.8377 H         1 <0>         0.1261
     33 H3          2.3353    1.3438    3.1508 H         1 <0>         0.1281
     34 H4          3.5552   -0.5136    2.0528 H         1 <0>         0.1315
     35 H5          1.3447   -3.7825    0.4081 H         1 <0>         0.1376
     36 H6         -0.7575   -2.7723    1.0987 H         1 <0>         0.1322
     37 H7         -1.9694   -0.9170    2.1982 H         1 <0>         0.1288
     38 H8          4.5014   -2.2586    0.4635 H         1 <0>         0.4110
     39 H9          5.8507   -4.1669    0.3332 H         1 <0>         0.4138
     40 H10         3.2222   -6.3993   -0.3201 H         1 <0>         0.1442
     41 H11         3.4113   -8.8498   -0.3929 H         1 <0>         0.1301
     42 H12         7.3754   -8.5836    1.2155 H         1 <0>         0.1378
     43 H13         7.1815   -6.1331    1.2755 H         1 <0>         0.1392
     44 H14         5.9536  -10.6803    2.4893 H         1 <0>         0.2126
     45 H15         4.9271  -13.3314   -3.9834 H         1 <0>         0.2141
     46 H16         5.4451  -14.3599   -1.8155 H         1 <0>         0.1856
     47 H17         5.3193   -8.5873   -1.7693 H         1 <0>         0.4394
     48 H18         4.3622   -8.8824   -3.1182 H         1 <0>         0.4211
     49 H19         4.7143  -11.0199   -4.0792 H         1 <0>         0.4435
@<TRIPOS>BOND
     1    1   10 ar
     2    1    2 ar
     3    1   31 1
     4    2    3 ar
     5    2   32 1
     6    3    4 ar
     7    3   33 1
     8    4    9 ar
     9    4    5 ar
    10    5    6 ar
    11    5   34 1
    12    6    7 ar
    13    6   11 1
    14    7    8 ar
    15    7   35 1
    16    8    9 ar
    17    8   36 1
    18    9   10 ar
    19   10   37 1
    20   11   12 am
    21   11   38 1
    22   12   13 2
    23   12   14 am
    24   14   15 1
    25   14   39 1
    26   15   20 ar
    27   15   16 ar
    28   16   17 ar
    29   16   40 1
    30   17   18 ar
    31   17   41 1
    32   18   19 ar
    33   18   21 1
    34   19   20 ar
    35   19   42 1
    36   20   43 1
    37   21   25 1
    38   21   22 2
    39   22   23 1
    40   22   44 1
    41   23   24 1
    42   24   29 ar
    43   24   25 ar
    44   25   26 ar
    45   26   27 ar
    46   26   30 1
    47   27   28 ar
    48   27   49 1
    49   28   29 ar
    50   28   45 1
    51   29   46 1
    52   30   47 1
    53   30   48 1
@<TRIPOS>MOLECULE
CHEMBL231411__1
   48    52     0     0     0
SMALL
USER_CHARGES

@<TRIPOS>ATOM
      1 C1         -0.9864    0.7587    3.0520 C.ar      1 <0>        -0.1211
      2 C2          0.2245    1.3948    3.3199 C.ar      1 <0>        -0.1111
      3 C3          1.4067    0.8399    2.9371 C.ar      1 <0>        -0.1111
      4 C4          1.4101   -0.3930    2.2614 C.ar      1 <0>        -0.0324
      5 C5          2.6112   -0.9948    1.8522 C.ar      1 <0>        -0.1393
      6 C6          2.5741   -2.2032    1.1930 C.ar      1 <0>         0.1695
      7 C7          1.3534   -2.8350    0.9275 C.ar      1 <0>        -0.1115
      8 C8          0.1776   -2.2726    1.3128 C.ar      1 <0>        -0.0878
      9 C9          0.1786   -1.0398    1.9889 C.ar      1 <0>        -0.0623
     10 C10        -1.0217   -0.4354    2.4000 C.ar      1 <0>        -0.1005
     11 N1          3.7686   -2.8055    0.7841 N.am      1 <0>        -0.6820
     12 C11         3.8995   -4.1459    0.8357 C.2       1 <0>         0.7046
     13 O1          2.9534   -4.8371    1.1607 O.2       1 <0>        -0.5502
     14 N2          5.0791   -4.7202    0.5269 N.am      1 <0>        -0.6828
     15 C12         5.1891   -6.1150    0.4865 C.ar      1 <0>         0.1711
     16 C13         4.1299   -6.8807    0.0149 C.ar      1 <0>        -0.1189
     17 C14         4.2356   -8.2549   -0.0261 C.ar      1 <0>        -0.0762
     18 C15         5.4069   -8.8761    0.4063 C.ar      1 <0>        -0.0642
     19 C16         6.4684   -8.1051    0.8792 C.ar      1 <0>        -0.0800
     20 C17         6.3594   -6.7309    0.9126 C.ar      1 <0>        -0.1426
     21 C18         5.5232  -10.3532    0.3639 C.2       1 <0>        -0.0435
     22 C19         5.7960  -11.0553    1.4888 C.2       1 <0>        -0.1598
     23 S1          5.8308  -12.7465    0.9258 S.3       1 <0>         0.0638
     24 C20         5.4819  -12.4769   -0.7899 C.ar      1 <0>        -0.0492
     25 C21         5.3396  -11.0772   -0.8906 C.ar      1 <0>        -0.1875
     26 C22         5.0459  -10.5788   -2.1858 C.ar      1 <0>         0.4586
     27 N3          4.9153  -11.3976   -3.2087 N.ar      1 <0>        -0.5516
     28 C23         5.0454  -12.7114   -3.1070 C.ar      1 <0>         0.1656
     29 C24         5.3387  -13.2885   -1.9006 C.ar      1 <0>        -0.1863
     30 N4          4.8939   -9.2123   -2.3769 N.pl3     1 <0>        -0.8506
     31 H1         -1.9104    1.2183    3.3706 H         1 <0>         0.1235
     32 H2          0.2246    2.3421    3.8385 H         1 <0>         0.1236
     33 H3          2.3374    1.3441    3.1510 H         1 <0>         0.1266
     34 H4          3.5569   -0.5133    2.0528 H         1 <0>         0.1306
     35 H5          1.3458   -3.7822    0.4089 H         1 <0>         0.1406
     36 H6         -0.7561   -2.7719    1.1001 H         1 <0>         0.1320
     37 H7         -1.9677   -0.9165    2.1999 H         1 <0>         0.1277
     38 H8          4.5026   -2.2585    0.4634 H         1 <0>         0.4097
     39 H9          5.8518   -4.1669    0.3328 H         1 <0>         0.4099
     40 H10         3.2229   -6.3992   -0.3196 H         1 <0>         0.1379
     41 H11         3.4119   -8.8497   -0.3924 H         1 <0>         0.1307
     42 H12         7.3766   -8.5836    1.2147 H         1 <0>         0.1320
     43 H13         7.1828   -6.1331    1.2746 H         1 <0>         0.1311
     44 H14         5.9551  -10.6802    2.4890 H         1 <0>         0.1918
     45 H15         4.9264  -13.3315   -3.9832 H         1 <0>         0.1671
     46 H16         5.4450  -14.3599   -1.8155 H         1 <0>         0.1415
     47 H17         5.3193   -8.5873   -1.7693 H         1 <0>         0.4103
     48 H18         4.3622   -8.8824   -3.1182 H         1 <0>         0.4029
@<TRIPOS>BOND
     1    1   10 ar
     2    1    2 ar
     3    1   31 1
     4    2    3 ar
     5    2   32 1
     6    3    4 ar
     7    3   33 1
     8    4    9 ar
     9    4    5 ar
    10    5    6 ar
    11    5   34 1
    12    6    7 ar
    13    6   11 1
    14    7    8 ar
    15    7   35 1
    16    8    9 ar
    17    8   36 1
    18    9   10 ar
    19   10   37 1
    20   11   12 am
    21   11   38 1
    22   12   13 2
    23   12   14 am
    24   14   15 1
    25   14   39 1
    26   15   20 ar
    27   15   16 ar
    28   16   17 ar
    29   16   40 1
    30   17   18 ar
    31   17   41 1
    32   18   19 ar
    33   18   21 1
    34   19   20 ar
    35   19   42 1
    36   20   43 1
    37   21   25 1
    38   21   22 2
    39   22   23 1
    40   22   44 1
    41   23   24 1
    42   24   29 ar
    43   24   25 ar
    44   25   26 ar
    45   26   27 ar
    46   26   30 1
    47   27   28 ar
    48   28   29 ar
    49   28   45 1
    50   29   46 1
    51   30   47 1
    52   30   48 1
@<TRIPOS>MOLECULE
CHEMBL445404
   52    56     0     0     0
SMALL
USER_CHARGES

@<TRIPOS>ATOM
      1 C1         -0.0173    1.4248    0.0099 C.3       1 <0>         0.0305
      2 O1          0.0021   -0.0041    0.0020 O.3       1 <0>        -0.3846
      3 C2          0.6518   -0.5703   -1.1379 C.3       1 <0>         0.0609
      4 C3          0.6131   -2.0967   -1.0411 C.3       1 <0>         0.0634
      5 O2         -0.7418   -2.5446   -1.1169 O.3       1 <0>        -0.3743
      6 C4         -0.8903   -3.9635   -1.0357 C.3       1 <0>         0.1772
      7 C5         -2.3174   -4.3134   -1.1235 C.1       1 <0>        -0.1227
      8 C6         -3.4556   -4.5924   -1.1936 C.1       1 <0>        -0.0831
      9 C7         -4.8440   -4.9327   -1.2791 C.2       1 <0>        -0.0535
     10 C8         -5.9250   -4.1053   -1.4232 C.2       1 <0>        -0.1036
     11 C9         -7.1902   -4.6681   -1.4840 C.2       1 <0>        -0.0491
     12 C10        -7.3090   -6.0289   -1.3975 C.2       1 <0>        -0.1443
     13 S1         -5.6083   -6.5449   -1.2330 S.3       1 <0>         0.1050
     14 C11        -8.3932   -3.8115   -1.6393 C.2       1 <0>         0.1591
     15 C12        -9.5521   -4.1428   -2.3592 C.2       1 <0>        -0.2216
     16 C13       -10.4223   -3.0994   -2.2627 C.2       1 <0>         0.1008
     17 N1         -9.8208   -2.1380   -1.4997 N.pl3     1 <0>        -0.4537
     18 H1        -10.2026   -1.2793   -1.2593 H         1 <0>         0.4420
     19 N2         -8.5593   -2.6128   -1.1210 N.2       1 <0>        -0.2547
     20 C14       -11.6634   -3.4034   -3.0087 C.ar      1 <0>        -0.0253
     21 C15       -12.8310   -2.6608   -3.2033 C.ar      1 <0>        -0.0949
     22 C16       -13.8612   -3.1839   -3.9560 C.ar      1 <0>        -0.0806
     23 C17       -13.7452   -4.4420   -4.5201 C.ar      1 <0>        -0.0997
     24 C18       -12.5918   -5.1838   -4.3320 C.ar      1 <0>        -0.0780
     25 C19       -11.5572   -4.6698   -3.5822 C.ar      1 <0>        -0.0743
     26 C20       -10.2027   -5.2143   -3.2001 C.3       1 <0>        -0.0073
     27 C21       -14.8767   -5.0058   -5.3404 C.3       1 <0>         0.1720
     28 N3        -14.6976   -4.6279   -6.7444 N.pl3     1 <0>        -0.3784
     29 C22       -14.6562   -5.4558   -7.8027 C.2       1 <0>         0.2542
     30 N4        -14.4832   -4.7314   -8.8783 N.2       1 <0>        -0.5455
     31 C23       -14.4100   -3.4426   -8.5483 C.2       1 <0>         0.1983
     32 N5        -14.5412   -3.3281   -7.2528 N.2       1 <0>        -0.3121
     33 H2          1.0053    1.8021    0.0021 H         1 <0>         0.0413
     34 H3         -0.5445    1.7859   -0.8732 H         1 <0>         0.0421
     35 H4         -0.5275    1.7763    0.9067 H         1 <0>         0.0872
     36 H5          0.1385   -0.2506   -2.0447 H         1 <0>         0.0594
     37 H6          1.6883   -0.2344   -1.1694 H         1 <0>         0.0679
     38 H7          1.1847   -2.5275   -1.8631 H         1 <0>         0.0704
     39 H8          1.0473   -2.4117   -0.0922 H         1 <0>         0.0639
     40 H9         -0.3498   -4.4331   -1.8576 H         1 <0>         0.0814
     41 H10        -0.4873   -4.3173   -0.0867 H         1 <0>         0.0824
     42 H11        -5.7947   -3.0351   -1.4880 H         1 <0>         0.1440
     43 H12        -8.2023   -6.6352   -1.4257 H         1 <0>         0.1953
     44 H13       -12.9265   -1.6786   -2.7644 H         1 <0>         0.1266
     45 H14       -14.7631   -2.6090   -4.1057 H         1 <0>         0.1320
     46 H15       -12.5034   -6.1658   -4.7728 H         1 <0>         0.1312
     47 H16        -9.6079   -5.4043   -4.0936 H         1 <0>         0.1012
     48 H17       -10.3154   -6.1306   -2.6206 H         1 <0>         0.1005
     49 H18       -14.8815   -6.0924   -5.2544 H         1 <0>         0.1142
     50 H19       -15.8235   -4.6083   -4.9750 H         1 <0>         0.1011
     51 H20       -14.7489   -6.5313   -7.7705 H         1 <0>         0.2191
     52 H21       -14.2693   -2.6248   -9.2396 H         1 <0>         0.2162
@<TRIPOS>BOND
     1    1    2 1
     2    1   33 1
     3    1   34 1
     4    1   35 1
     5    2    3 1
     6    3    4 1
     7    3   36 1
     8    3   37 1
     9    4    5 1
    10    4   38 1
    11    4   39 1
    12    5    6 1
    13    6    7 1
    14    6   40 1
    15    6   41 1
    16    7    8 3
    17    8    9 1
    18    9   13 1
    19    9   10 2
    20   10   11 1
    21   10   42 1
    22   11   12 2
    23   11   14 1
    24   12   13 1
    25   12   43 1
    26   14   19 2
    27   14   15 1
    28   15   26 1
    29   15   16 2
    30   16   17 1
    31   16   20 1
    32   17   18 1
    33   17   19 1
    34   20   25 ar
    35   20   21 ar
    36   21   22 ar
    37   21   44 1
    38   22   23 ar
    39   22   45 1
    40   23   24 ar
    41   23   27 1
    42   24   25 ar
    43   24   46 1
    44   25   26 1
    45   26   47 1
    46   26   48 1
    47   27   28 1
    48   27   49 1
    49   27   50 1
    50   28   32 1
    51   28   29 1
    52   29   30 2
    53   29   51 1
    54   30   31 1
    55   31   32 2
    56   31   52 1
@<TRIPOS>MOLECULE
CHEMBL445404__1
   52    56     0     0     0
SMALL
USER_CHARGES

@<TRIPOS>ATOM
      1 C1         -0.0173    1.4248    0.0099 C.3       1 <0>         0.0304
      2 O1          0.0021   -0.0041    0.0020 O.3       1 <0>        -0.3852
      3 C2          0.6518   -0.5703   -1.1379 C.3       1 <0>         0.0608
      4 C3          0.6131   -2.0967   -1.0411 C.3       1 <0>         0.0635
      5 O2         -0.7418   -2.5446   -1.1169 O.3       1 <0>        -0.3747
      6 C4         -0.8903   -3.9635   -1.0357 C.3       1 <0>         0.1752
      7 C5         -2.3174   -4.3134   -1.1235 C.1       1 <0>        -0.1135
      8 C6         -3.4556   -4.5924   -1.1936 C.1       1 <0>        -0.0909
      9 C7         -4.8440   -4.9327   -1.2791 C.2       1 <0>        -0.0450
     10 C8         -5.9241   -4.1052   -1.4232 C.2       1 <0>        -0.1200
     11 C9         -7.1910   -4.6679   -1.4841 C.2       1 <0>        -0.0727
     12 C10        -7.3086   -6.0308   -1.3974 C.2       1 <0>        -0.1370
     13 S1         -5.6075   -6.5452   -1.2330 S.3       1 <0>         0.1168
     14 C11        -8.3904   -3.8142   -1.6389 C.2       1 <0>         0.1683
     15 C12        -9.4330   -4.0357   -2.4867 C.2       1 <0>        -0.2315
     16 C13       -10.3589   -2.9925   -2.3219 C.2       1 <0>         0.0930
     17 N1         -9.8869   -2.1704   -1.4038 N.2       1 <0>        -0.2513
     18 H1         -8.0918   -2.2606   -0.2777 H         1 <0>         0.4460
     19 N2         -8.6566   -2.6652   -0.9546 N.pl3     1 <0>        -0.4597
     20 C14       -11.5081   -3.2098   -3.2371 C.ar      1 <0>        -0.0062
     21 C15       -12.6688   -2.4628   -3.4459 C.ar      1 <0>        -0.0858
     22 C16       -13.6021   -2.8837   -4.3701 C.ar      1 <0>        -0.0827
     23 C17       -13.3926   -4.0448   -5.0924 C.ar      1 <0>        -0.1008
     24 C18       -12.2449   -4.7900   -4.8903 C.ar      1 <0>        -0.0814
     25 C19       -11.3058   -4.3764   -3.9683 C.ar      1 <0>        -0.0764
     26 C20        -9.9852   -4.9664   -3.5377 C.3       1 <0>         0.0025
     27 C21       -14.4165   -4.4987   -6.1006 C.3       1 <0>         0.1724
     28 N3        -14.1039   -3.9188   -7.4091 N.pl3     1 <0>        -0.3775
     29 C22       -13.9296   -4.5839   -8.5643 C.2       1 <0>         0.2532
     30 N4        -13.6669   -3.7089   -9.5009 N.2       1 <0>        -0.5463
     31 C23       -13.6651   -2.4807   -8.9843 C.2       1 <0>         0.1972
     32 N5        -13.9329   -2.5570   -7.7072 N.2       1 <0>        -0.3105
     33 H2          1.0053    1.8021    0.0021 H         1 <0>         0.0418
     34 H3         -0.5445    1.7859   -0.8732 H         1 <0>         0.0423
     35 H4         -0.5275    1.7763    0.9067 H         1 <0>         0.0873
     36 H5          0.1385   -0.2506   -2.0447 H         1 <0>         0.0595
     37 H6          1.6883   -0.2344   -1.1694 H         1 <0>         0.0685
     38 H7          1.1847   -2.5275   -1.8631 H         1 <0>         0.0710
     39 H8          1.0473   -2.4117   -0.0922 H         1 <0>         0.0643
     40 H9         -0.3498   -4.4331   -1.8576 H         1 <0>         0.0829
     41 H10        -0.4873   -4.3173   -0.0867 H         1 <0>         0.0837
     42 H11        -5.7932   -3.0351   -1.4878 H         1 <0>         0.1406
     43 H12        -8.2014   -6.6380   -1.4254 H         1 <0>         0.1979
     44 H13       -12.8361   -1.5560   -2.8837 H         1 <0>         0.1302
     45 H14       -14.4997   -2.3049   -4.5302 H         1 <0>         0.1317
     46 H15       -12.0838   -5.6965   -5.4548 H         1 <0>         0.1293
     47 H16        -9.3039   -5.0193   -4.3870 H         1 <0>         0.0950
     48 H17       -10.1375   -5.9599   -3.1161 H         1 <0>         0.0950
     49 H18       -14.3992   -5.5863   -6.1717 H         1 <0>         0.1134
     50 H19       -15.4071   -4.1710   -5.7853 H         1 <0>         0.1009
     51 H20       -13.9944   -5.6538   -8.6961 H         1 <0>         0.2186
     52 H21       -13.4770   -1.5695   -9.5327 H         1 <0>         0.2159
@<TRIPOS>BOND
     1    1    2 1
     2    1   33 1
     3    1   34 1
     4    1   35 1
     5    2    3 1
     6    3    4 1
     7    3   36 1
     8    3   37 1
     9    4    5 1
    10    4   38 1
    11    4   39 1
    12    5    6 1
    13    6    7 1
    14    6   40 1
    15    6   41 1
    16    7    8 3
    17    8    9 1
    18    9   13 1
    19    9   10 2
    20   10   11 1
    21   10   42 1
    22   11   12 2
    23   11   14 1
    24   12   13 1
    25   12   43 1
    26   14   15 2
    27   14   19 1
    28   15   16 1
    29   15   26 1
    30   16   17 2
    31   16   20 1
    32   17   19 1
    33   18   19 1
    34   20   25 ar
    35   20   21 ar
    36   21   22 ar
    37   21   44 1
    38   22   23 ar
    39   22   45 1
    40   23   24 ar
    41   23   27 1
    42   24   25 ar
    43   24   46 1
    44   25   26 1
    45   26   47 1
    46   26   48 1
    47   27   28 1
    48   27   49 1
    49   27   50 1
    50   28   32 1
    51   28   29 1
    52   29   30 2
    53   29   51 1
    54   30   31 1
    55   31   32 2
    56   31   52 1
@<TRIPOS>MOLECULE
CHEMBL189354
   62    65     0     0     0
SMALL
USER_CHARGES

@<TRIPOS>ATOM
      1 C1          1.4805    1.3593    0.6401 C.3       1 <0>         0.0659
      2 N1          0.9085    0.0125    0.5687 N.pl3     1 <0>        -0.4927
      3 C2          0.4731   -0.6259    1.7360 C.ar      1 <0>         0.0899
      4 C3         -0.5498   -0.0686    2.4922 C.ar      1 <0>        -0.0855
      5 C4         -0.9794   -0.6986    3.6431 C.ar      1 <0>        -0.1275
      6 C5         -0.3884   -1.8891    4.0449 C.ar      1 <0>         0.1824
      7 C6          0.6346   -2.4462    3.2893 C.ar      1 <0>        -0.1037
      8 C7          1.0602   -1.8197    2.1350 C.ar      1 <0>        -0.0748
      9 N2         -0.8243   -2.5282    5.2135 N.am      1 <0>        -0.6806
     10 C8          0.0615   -3.1694    6.0014 C.2       1 <0>         0.7099
     11 O1          1.2282   -3.2459    5.6674 O.2       1 <0>        -0.5502
     12 N3         -0.3458   -3.7259    7.1594 N.am      1 <0>        -0.6723
     13 C9          0.5805   -4.3646    7.9935 C.ar      1 <0>         0.1267
     14 C10         1.7030   -4.9731    7.4490 C.ar      1 <0>        -0.0516
     15 C11         2.6150   -5.6024    8.2740 C.ar      1 <0>        -0.1742
     16 C12         2.4116   -5.6271    9.6415 C.ar      1 <0>        -0.0526
     17 C13         1.2949   -5.0228   10.1887 C.ar      1 <0>        -0.1299
     18 C14         0.3808   -4.3856    9.3693 C.ar      1 <0>         0.1081
     19 F1         -0.7071   -3.7895    9.9043 F         1 <0>        -0.1254
     20 C15         3.8333   -6.2634    7.6826 C.3       1 <0>         0.5131
     21 F2          4.8812   -5.3386    7.6194 F         1 <0>        -0.1717
     22 F3          4.2132   -7.3444    8.4852 F         1 <0>        -0.1721
     23 F4          3.5366   -6.7207    6.3942 F         1 <0>        -0.1754
     24 C16         0.7984   -0.6296   -0.6547 C.ar      1 <0>         0.5104
     25 C17         1.3976   -0.0895   -1.7952 C.ar      1 <0>        -0.2604
     26 C18         1.2621   -0.7639   -2.9926 C.ar      1 <0>         0.2097
     27 N4          0.5729   -1.8952   -3.0252 N.ar      1 <0>        -0.5770
     28 C19         0.0147   -2.3844   -1.9279 C.ar      1 <0>         0.6557
     29 N5          0.1257   -1.7713   -0.7589 N.ar      1 <0>        -0.5535
     30 N6         -0.6982   -3.5697   -2.0037 N.pl3     1 <0>        -0.6172
     31 C20        -0.7163   -4.2995   -3.1961 C.ar      1 <0>         0.0887
     32 C21         0.4488   -4.4510   -3.9373 C.ar      1 <0>        -0.1161
     33 C22         0.4274   -5.1723   -5.1146 C.ar      1 <0>        -0.0967
     34 C23        -0.7523   -5.7434   -5.5562 C.ar      1 <0>        -0.0068
     35 C24        -1.9138   -5.5942   -4.8210 C.ar      1 <0>        -0.6439
     36 C25        -1.8979   -4.8795   -3.6392 C.ar      1 <0>        -0.0161
     37 S1         -3.4142   -6.3233   -5.3884 S.o2      1 <0>         2.7002
     38 O2         -4.4740   -5.5793   -4.8032 O.2       1 <0>        -0.9515
     39 O3         -3.2816   -6.4837   -6.7941 O.2       1 <0>        -0.9463
     40 N7         -3.4928   -7.8466   -4.7436 N.pl3     1 <0>        -1.2461
     41 H1          2.5584    1.2890    0.7858 H         1 <0>         0.0885
     42 H2          1.2733    1.8918   -0.2881 H         1 <0>         0.0928
     43 H3          1.0354    1.8992    1.4758 H         1 <0>         0.1020
     44 H4         -1.0090    0.8578    2.1801 H         1 <0>         0.1358
     45 H5         -1.7748   -0.2652    4.2312 H         1 <0>         0.1402
     46 H6          1.0946   -3.3719    3.6023 H         1 <0>         0.1500
     47 H7          1.8526   -2.2556    1.5446 H         1 <0>         0.1262
     48 H8         -1.7634   -2.5091    5.4553 H         1 <0>         0.4155
     49 H9         -1.2806   -3.6840    7.4151 H         1 <0>         0.4175
     50 H10         1.8631   -4.9549    6.3811 H         1 <0>         0.1680
     51 H11         3.1266   -6.1199   10.2837 H         1 <0>         0.1524
     52 H12         1.1387   -5.0442   11.2572 H         1 <0>         0.1580
     53 H13         1.9538    0.8347   -1.7417 H         1 <0>         0.1897
     54 H14         1.7127   -0.3733   -3.8931 H         1 <0>         0.2188
     55 H15        -1.1847   -3.8934   -1.2295 H         1 <0>         0.4507
     56 H16         1.3702   -4.0047   -3.5934 H         1 <0>         0.1385
     57 H17         1.3329   -5.2905   -5.6913 H         1 <0>         0.1564
     58 H18        -0.7664   -6.3068   -6.4775 H         1 <0>         0.1621
     59 H19        -2.8043   -4.7676   -3.0628 H         1 <0>         0.1609
     60 H20        -2.7794   -8.1680   -4.1704 H         1 <0>         0.4177
     61 H21        -4.2523   -8.4174   -4.9392 H         1 <0>         0.4280
     62 H22         0.4755   -2.3718   -3.8644 H         1 <0>         0.4414
@<TRIPOS>BOND
     1    1    2 1
     2    1   41 1
     3    1   42 1
     4    1   43 1
     5    2    3 1
     6    2   24 1
     7    3    8 ar
     8    3    4 ar
     9    4    5 ar
    10    4   44 1
    11    5    6 ar
    12    5   45 1
    13    6    7 ar
    14    6    9 1
    15    7    8 ar
    16    7   46 1
    17    8   47 1
    18    9   10 am
    19    9   48 1
    20   10   11 2
    21   10   12 am
    22   12   13 1
    23   12   49 1
    24   13   18 ar
    25   13   14 ar
    26   14   15 ar
    27   14   50 1
    28   15   16 ar
    29   15   20 1
    30   16   17 ar
    31   16   51 1
    32   17   18 ar
    33   17   52 1
    34   18   19 1
    35   20   21 1
    36   20   22 1
    37   20   23 1
    38   24   29 ar
    39   24   25 ar
    40   25   26 ar
    41   25   53 1
    42   26   27 ar
    43   26   54 1
    44   27   28 ar
    45   27   62 1
    46   28   29 ar
    47   28   30 1
    48   30   31 1
    49   30   55 1
    50   31   36 ar
    51   31   32 ar
    52   32   33 ar
    53   32   56 1
    54   33   34 ar
    55   33   57 1
    56   34   35 ar
    57   34   58 1
    58   35   36 ar
    59   35   37 1
    60   36   59 1
    61   37   38 2
    62   37   39 2
    63   37   40 1
    64   40   60 1
    65   40   61 1
@<TRIPOS>MOLECULE
CHEMBL224918
   52    57     0     0     0
SMALL
USER_CHARGES

@<TRIPOS>ATOM
      1 C1         -0.0167    1.3784    0.0096 C.ar      1 <0>        -0.1564
      2 C2          1.1698    2.0883    0.0021 C.ar      1 <0>        -0.0795
      3 C3          2.3773    1.4175   -0.0134 C.ar      1 <0>        -0.1493
      4 C4          2.3989    0.0304   -0.0210 C.ar      1 <0>         0.1282
      5 C5          1.2070   -0.6796   -0.0130 C.ar      1 <0>        -0.2101
      6 C6          0.0021   -0.0041    0.0020 C.ar      1 <0>        -0.0794
      7 O1          3.5855   -0.6319   -0.0368 O.3       1 <0>        -0.3102
      8 C7          3.5315   -2.0598   -0.0438 C.3       1 <0>         0.1794
      9 C8          4.8997   -2.6026   -0.0608 C.1       1 <0>        -0.1359
     10 C9          5.9909   -3.0354   -0.0744 C.1       1 <0>        -0.0641
     11 C10         7.3219   -3.5634   -0.0909 C.2       1 <0>        -0.0632
     12 C11         8.5141   -2.8905   -0.0935 C.2       1 <0>        -0.0988
     13 C12         9.6910   -3.6224   -0.1101 C.2       1 <0>        -0.0520
     14 C13         9.6151   -4.9889   -0.1233 C.2       1 <0>        -0.1414
     15 S1          7.8522   -5.2675   -0.1054 S.3       1 <0>         0.1164
     16 C14        11.0085   -2.9373   -0.1141 C.2       1 <0>         0.1590
     17 C15        12.1752   -3.3933    0.5198 C.2       1 <0>        -0.2218
     18 C16        13.1658   -2.4888    0.2833 C.2       1 <0>         0.1020
     19 N1         12.6302   -1.4903   -0.4811 N.pl3     1 <0>        -0.4535
     20 H1         13.1002   -0.7066   -0.8063 H         1 <0>         0.4421
     21 N2         11.2855   -1.8004   -0.7174 N.2       1 <0>        -0.2562
     22 C17        14.4198   -2.9282    0.9342 C.ar      1 <0>        -0.0261
     23 C18        15.6906   -2.3489    0.9794 C.ar      1 <0>        -0.0946
     24 C19        16.7076   -2.9749    1.6690 C.ar      1 <0>        -0.0806
     25 C20        16.4763   -4.1753    2.3170 C.ar      1 <0>        -0.0991
     26 C21        15.2202   -4.7555    2.2770 C.ar      1 <0>        -0.0780
     27 C22        14.1980   -4.1377    1.5912 C.ar      1 <0>        -0.0741
     28 C23        12.7518   -4.5038    1.3641 C.3       1 <0>        -0.0076
     29 C24        17.5941   -4.8526    3.0674 C.3       1 <0>         0.1719
     30 N3         17.6032   -4.3857    4.4559 N.pl3     1 <0>        -0.3785
     31 C25        17.5513   -5.1474    5.5624 C.2       1 <0>         0.2543
     32 N4         17.5821   -4.3546    6.6028 N.2       1 <0>        -0.5453
     33 C26        17.6533   -3.0858    6.2023 C.2       1 <0>         0.1985
     34 N5         17.6742   -3.0538    4.8957 N.2       1 <0>        -0.3122
     35 H2         -0.9596    1.9047    0.0260 H         1 <0>         0.1251
     36 H3          1.1525    3.1682    0.0080 H         1 <0>         0.1309
     37 H4          3.3038    1.9724   -0.0200 H         1 <0>         0.1317
     38 H5          1.2211   -1.7595   -0.0193 H         1 <0>         0.1294
     39 H6         -0.9260   -0.5563    0.0082 H         1 <0>         0.1265
     40 H7          3.0134   -2.4083    0.8497 H         1 <0>         0.0945
     41 H8          2.9951   -2.3988   -0.9302 H         1 <0>         0.0945
     42 H9          8.5371   -1.8108   -0.0831 H         1 <0>         0.1441
     43 H10        10.4164   -5.7129   -0.1369 H         1 <0>         0.1962
     44 H11        15.8762   -1.4124    0.4745 H         1 <0>         0.1266
     45 H12        17.6893   -2.5262    1.7032 H         1 <0>         0.1322
     46 H13        15.0419   -5.6927    2.7832 H         1 <0>         0.1314
     47 H14        12.2251   -4.5647    2.3164 H         1 <0>         0.1014
     48 H15        12.6830   -5.4538    0.8340 H         1 <0>         0.1006
     49 H16        17.4430   -5.9319    3.0479 H         1 <0>         0.1143
     50 H17        18.5468   -4.6105    2.5964 H         1 <0>         0.1011
     51 H18        17.4936   -6.2255    5.5881 H         1 <0>         0.2191
     52 H19        17.6919   -2.2239    6.8519 H         1 <0>         0.2162
@<TRIPOS>BOND
     1    1    6 ar
     2    1    2 ar
     3    1   35 1
     4    2    3 ar
     5    2   36 1
     6    3    4 ar
     7    3   37 1
     8    4    5 ar
     9    4    7 1
    10    5    6 ar
    11    5   38 1
    12    6   39 1
    13    7    8 1
    14    8    9 1
    15    8   40 1
    16    8   41 1
    17    9   10 3
    18   10   11 1
    19   11   15 1
    20   11   12 2
    21   12   13 1
    22   12   42 1
    23   13   14 2
    24   13   16 1
    25   14   15 1
    26   14   43 1
    27   16   21 2
    28   16   17 1
    29   17   28 1
    30   17   18 2
    31   18   19 1
    32   18   22 1
    33   19   20 1
    34   19   21 1
    35   22   27 ar
    36   22   23 ar
    37   23   24 ar
    38   23   44 1
    39   24   25 ar
    40   24   45 1
    41   25   26 ar
    42   25   29 1
    43   26   27 ar
    44   26   46 1
    45   27   28 1
    46   28   47 1
    47   28   48 1
    48   29   30 1
    49   29   49 1
    50   29   50 1
    51   30   34 1
    52   30   31 1
    53   31   32 2
    54   31   51 1
    55   32   33 1
    56   33   34 2
    57   33   52 1
@<TRIPOS>MOLECULE
CHEMBL224918__1
   52    57     0     0     0
SMALL
USER_CHARGES

@<TRIPOS>ATOM
      1 C1         -0.0167    1.3784    0.0096 C.ar      1 <0>        -0.1556
      2 C2          1.1698    2.0883    0.0021 C.ar      1 <0>        -0.0792
      3 C3          2.3773    1.4175   -0.0134 C.ar      1 <0>        -0.1487
      4 C4          2.3989    0.0304   -0.0210 C.ar      1 <0>         0.1272
      5 C5          1.2070   -0.6796   -0.0130 C.ar      1 <0>        -0.2100
      6 C6          0.0021   -0.0041    0.0020 C.ar      1 <0>        -0.0793
      7 O1          3.5855   -0.6319   -0.0368 O.3       1 <0>        -0.3101
      8 C7          3.5315   -2.0598   -0.0438 C.3       1 <0>         0.1776
      9 C8          4.8997   -2.6026   -0.0608 C.1       1 <0>        -0.1268
     10 C9          5.9909   -3.0354   -0.0744 C.1       1 <0>        -0.0720
     11 C10         7.3219   -3.5634   -0.0909 C.2       1 <0>        -0.0547
     12 C11         8.5132   -2.8903   -0.0935 C.2       1 <0>        -0.1153
     13 C12         9.6919   -3.6223   -0.1101 C.2       1 <0>        -0.0754
     14 C13         9.6145   -4.9907   -0.1233 C.2       1 <0>        -0.1343
     15 S1          7.8514   -5.2677   -0.1054 S.3       1 <0>         0.1282
     16 C14        11.0054   -2.9396   -0.1141 C.2       1 <0>         0.1672
     17 C15        12.0846   -3.2645    0.6505 C.2       1 <0>        -0.2305
     18 C16        13.1235   -2.3713    0.3412 C.2       1 <0>         0.0940
     19 N1         12.6818   -1.5362   -0.5803 N.2       1 <0>        -0.2512
     20 H1         10.7916   -1.4270   -1.5362 H         1 <0>         0.4455
     21 N2         11.3583   -1.8739   -0.8882 N.pl3     1 <0>        -0.4604
     22 C17        14.3148   -2.7038    1.1632 C.ar      1 <0>        -0.0071
     23 C18        15.5808   -2.1186    1.2227 C.ar      1 <0>        -0.0856
     24 C19        16.5325   -2.6215    2.0852 C.ar      1 <0>        -0.0826
     25 C20        16.2374   -3.7052    2.8928 C.ar      1 <0>        -0.1003
     26 C21        14.9851   -4.2902    2.8386 C.ar      1 <0>        -0.0814
     27 C22        14.0269   -3.7935    1.9793 C.ar      1 <0>        -0.0763
     28 C23        12.6033   -4.2117    1.7037 C.3       1 <0>         0.0021
     29 C24        17.2820   -4.2495    3.8327 C.3       1 <0>         0.1723
     30 N3         17.1778   -3.5687    5.1258 N.pl3     1 <0>        -0.3776
     31 C25        17.0261   -4.1460    6.3303 C.2       1 <0>         0.2533
     32 N4         16.9756   -3.1985    7.2311 N.2       1 <0>        -0.5462
     33 C26        17.0911   -2.0087    6.6425 C.2       1 <0>         0.1974
     34 N5         17.2226   -2.1837    5.3538 N.2       1 <0>        -0.3107
     35 H2         -0.9596    1.9047    0.0260 H         1 <0>         0.1255
     36 H3          1.1525    3.1682    0.0080 H         1 <0>         0.1313
     37 H4          3.3038    1.9724   -0.0200 H         1 <0>         0.1319
     38 H5          1.2211   -1.7595   -0.0193 H         1 <0>         0.1292
     39 H6         -0.9260   -0.5563    0.0082 H         1 <0>         0.1268
     40 H7          3.0134   -2.4083    0.8497 H         1 <0>         0.0955
     41 H8          2.9951   -2.3988   -0.9302 H         1 <0>         0.0953
     42 H9          8.5356   -1.8106   -0.0831 H         1 <0>         0.1407
     43 H10        10.4151   -5.7155   -0.1369 H         1 <0>         0.1988
     44 H11        15.8151   -1.2726    0.5936 H         1 <0>         0.1303
     45 H12        17.5116   -2.1679    2.1298 H         1 <0>         0.1319
     46 H13        14.7572   -5.1366    3.4695 H         1 <0>         0.1295
     47 H14        12.0056   -4.1270    2.6113 H         1 <0>         0.0953
     48 H15        12.5783   -5.2360    1.3319 H         1 <0>         0.0952
     49 H16        17.1240   -5.3191    3.9715 H         1 <0>         0.1135
     50 H17        18.2731   -4.0803    3.4118 H         1 <0>         0.1010
     51 H18        16.9573   -5.2067    6.5211 H         1 <0>         0.2187
     52 H19        17.0819   -1.0546    7.1486 H         1 <0>         0.2159
@<TRIPOS>BOND
     1    1    6 ar
     2    1    2 ar
     3    1   35 1
     4    2    3 ar
     5    2   36 1
     6    3    4 ar
     7    3   37 1
     8    4    5 ar
     9    4    7 1
    10    5    6 ar
    11    5   38 1
    12    6   39 1
    13    7    8 1
    14    8    9 1
    15    8   40 1
    16    8   41 1
    17    9   10 3
    18   10   11 1
    19   11   15 1
    20   11   12 2
    21   12   13 1
    22   12   42 1
    23   13   14 2
    24   13   16 1
    25   14   15 1
    26   14   43 1
    27   16   17 2
    28   16   21 1
    29   17   18 1
    30   17   28 1
    31   18   19 2
    32   18   22 1
    33   19   21 1
    34   20   21 1
    35   22   27 ar
    36   22   23 ar
    37   23   24 ar
    38   23   44 1
    39   24   25 ar
    40   24   45 1
    41   25   26 ar
    42   25   29 1
    43   26   27 ar
    44   26   46 1
    45   27   28 1
    46   28   47 1
    47   28   48 1
    48   29   30 1
    49   29   49 1
    50   29   50 1
    51   30   34 1
    52   30   31 1
    53   31   32 2
    54   31   51 1
    55   32   33 1
    56   33   34 2
    57   33   52 1
@<TRIPOS>MOLECULE
CHEMBL595615
   72    77     0     0     0
SMALL
USER_CHARGES

@<TRIPOS>ATOM
      1 C1          1.6802    1.1103   -0.8515 C.3       1 <0>        -0.0459
      2 N1          1.4675   -0.3401   -0.7573 N.4       1 <0>        -0.3887
      3 C2          0.0328   -0.6154   -0.6045 C.3       1 <0>        -0.0025
      4 C3         -0.1911   -2.1271   -0.5252 C.3       1 <0>         0.0252
      5 N2          0.5542   -2.6705    0.6191 N.3       1 <0>        -0.5382
      6 C4          1.9895   -2.3808    0.4922 C.3       1 <0>         0.0187
      7 C5          2.1955   -0.8670    0.4046 C.3       1 <0>        -0.0026
      8 C6          0.3191   -4.1134    0.7631 C.3       1 <0>         0.0578
      9 C7          0.9009   -4.5946    2.0939 C.3       1 <0>        -0.1172
     10 C8          0.6561   -6.0974    2.2439 C.3       1 <0>         0.0535
     11 O1          1.1995   -6.5468    3.4868 O.3       1 <0>        -0.2950
     12 C9          1.0659   -7.8672    3.7769 C.ar      1 <0>         0.1634
     13 C10         0.4329   -8.7008    2.8815 C.ar      1 <0>        -0.1821
     14 C11         0.2965  -10.0612    3.1831 C.ar      1 <0>         0.2011
     15 C12         0.8124  -10.5589    4.4055 C.ar      1 <0>        -0.1817
     16 C13         1.4515   -9.6905    5.2984 C.ar      1 <0>        -0.1431
     17 C14         1.5787   -8.3678    4.9817 C.ar      1 <0>         0.1082
     18 O2          2.2050   -7.5263    5.8470 O.3       1 <0>        -0.3022
     19 C15         2.7061   -8.0962    7.0579 C.3       1 <0>         0.0207
     20 C16         0.6599  -11.9383    4.6822 C.ar      1 <0>         0.4661
     21 N3          0.0424  -12.6940    3.7837 N.ar      1 <0>        -0.5760
     22 C17        -0.4237  -12.1847    2.6545 C.ar      1 <0>         0.3479
     23 N4         -0.3114  -10.9151    2.3446 N.ar      1 <0>        -0.5450
     24 N5          1.1415  -12.4832    5.8560 N.pl3     1 <0>        -0.6391
     25 C18         1.0890  -13.8625    6.0577 C.ar      1 <0>         0.1737
     26 C19         1.2874  -14.7285    4.9874 C.ar      1 <0>        -0.1103
     27 C20         1.2362  -16.0910    5.1834 C.ar      1 <0>        -0.0436
     28 C21         0.9848  -16.6026    6.4583 C.ar      1 <0>        -0.0374
     29 C22         0.7861  -15.7306    7.5309 C.ar      1 <0>        -0.0630
     30 C23         0.8441  -14.3691    7.3297 C.ar      1 <0>        -0.1436
     31 C24         0.9288  -18.0635    6.6719 C.2       1 <0>         0.2042
     32 N6          1.0939  -19.0324    5.7973 N.2       1 <0>        -0.4976
     33 C25         1.0153  -20.3343    6.1354 C.ar      1 <0>         0.0772
     34 C26         1.1708  -21.4658    5.2993 C.ar      1 <0>        -0.0592
     35 C27         1.0590  -22.7242    5.8018 C.ar      1 <0>        -0.1110
     36 C28         0.7904  -22.9518    7.1445 C.ar      1 <0>        -0.0901
     37 C29         0.6319  -21.8742    7.9959 C.ar      1 <0>        -0.0688
     38 C30         0.7424  -20.5989    7.4984 C.ar      1 <0>        -0.1395
     39 S1          0.6274  -18.9648    8.1857 S.3       1 <0>        -0.0074
     40 H1          2.7447    1.3148   -0.9662 H         1 <0>         0.1244
     41 H2          1.1401    1.5015   -1.7137 H         1 <0>         0.1244
     42 H3          1.3137    1.5910    0.0556 H         1 <0>         0.1233
     43 H4         -0.3319   -0.1457    0.3090 H         1 <0>         0.1381
     44 H5         -0.5077   -0.2125   -1.4610 H         1 <0>         0.1366
     45 H6         -1.2541   -2.3311   -0.3968 H         1 <0>         0.1249
     46 H7          0.1611   -2.5956   -1.4442 H         1 <0>         0.0619
     47 H8          2.5174   -2.7699    1.3629 H         1 <0>         0.1268
     48 H9          2.3776   -2.8535   -0.4100 H         1 <0>         0.0622
     49 H10         3.2583   -0.6506    0.2962 H         1 <0>         0.1363
     50 H11         1.8196   -0.3960    1.3129 H         1 <0>         0.1382
     51 H12        -0.7527   -4.3108    0.7426 H         1 <0>         0.0942
     52 H13         0.8020   -4.6439   -0.0576 H         1 <0>         0.0522
     53 H14         1.9727   -4.3973    2.1143 H         1 <0>         0.0765
     54 H15         0.4181   -4.0641    2.9145 H         1 <0>         0.0901
     55 H16        -0.4157   -6.2948    2.2234 H         1 <0>         0.0718
     56 H17         1.1390   -6.6279    1.4232 H         1 <0>         0.0684
     57 H18         0.0442   -8.3077    1.9537 H         1 <0>         0.1529
     58 H19         1.8462  -10.0654    6.2312 H         1 <0>         0.1409
     59 H20         3.1810   -7.3185    7.6561 H         1 <0>         0.1077
     60 H21         1.8825   -8.5354    7.6208 H         1 <0>         0.0588
     61 H22         3.4369   -8.8692    6.8205 H         1 <0>         0.0587
     62 H23        -0.9186  -12.8441    1.9568 H         1 <0>         0.1998
     63 H24         1.5162  -11.9069    6.5403 H         1 <0>         0.4208
     64 H25         1.4814  -14.3322    4.0016 H         1 <0>         0.1420
     65 H26         1.3900  -16.7629    4.3520 H         1 <0>         0.1415
     66 H27         0.5915  -16.1233    8.5180 H         1 <0>         0.1342
     67 H28         0.6948  -13.6943    8.1596 H         1 <0>         0.1352
     68 H29         1.3805  -21.3278    4.2488 H         1 <0>         0.1341
     69 H30         1.1820  -23.5682    5.1394 H         1 <0>         0.1365
     70 H31         0.7058  -23.9608    7.5203 H         1 <0>         0.1414
     71 H32         0.4222  -22.0339    9.0432 H         1 <0>         0.1358
     72 H33         1.8074   -0.7849   -1.5968 H         1 <0>         0.4225
@<TRIPOS>BOND
     1    1    2 1
     2    1   40 1
     3    1   41 1
     4    1   42 1
     5    2    7 1
     6    2    3 1
     7    2   72 1
     8    3    4 1
     9    3   43 1
    10    3   44 1
    11    4    5 1
    12    4   45 1
    13    4   46 1
    14    5    6 1
    15    5    8 1
    16    6    7 1
    17    6   47 1
    18    6   48 1
    19    7   49 1
    20    7   50 1
    21    8    9 1
    22    8   51 1
    23    8   52 1
    24    9   10 1
    25    9   53 1
    26    9   54 1
    27   10   11 1
    28   10   55 1
    29   10   56 1
    30   11   12 1
    31   12   17 ar
    32   12   13 ar
    33   13   14 ar
    34   13   57 1
    35   14   23 ar
    36   14   15 ar
    37   15   16 ar
    38   15   20 ar
    39   16   17 ar
    40   16   58 1
    41   17   18 1
    42   18   19 1
    43   19   59 1
    44   19   60 1
    45   19   61 1
    46   20   21 ar
    47   20   24 1
    48   21   22 ar
    49   22   23 ar
    50   22   62 1
    51   24   25 1
    52   24   63 1
    53   25   30 ar
    54   25   26 ar
    55   26   27 ar
    56   26   64 1
    57   27   28 ar
    58   27   65 1
    59   28   29 ar
    60   28   31 1
    61   29   30 ar
    62   29   66 1
    63   30   67 1
    64   31   39 1
    65   31   32 2
    66   32   33 1
    67   33   38 ar
    68   33   34 ar
    69   34   35 ar
    70   34   68 1
    71   35   36 ar
    72   35   69 1
    73   36   37 ar
    74   36   70 1
    75   37   38 ar
    76   37   71 1
    77   38   39 1
@<TRIPOS>MOLECULE
CHEMBL595615__1
   72    77     0     0     0
SMALL
USER_CHARGES

@<TRIPOS>ATOM
      1 C1          1.6471    1.1978   -0.9225 C.3       1 <0>         0.0193
      2 N1          1.4459   -0.2536   -0.8175 N.3       1 <0>        -0.5439
      3 C2          0.0158   -0.5826   -0.7359 C.3       1 <0>         0.0239
      4 C3         -0.1529   -2.1028   -0.6880 C.3       1 <0>        -0.0019
      5 N2          0.5577   -2.6379    0.4808 N.4       1 <0>        -0.3852
      6 C4          1.9882   -2.3228    0.3729 C.3       1 <0>        -0.0086
      7 C5          2.1748   -0.8044    0.3338 C.3       1 <0>         0.0247
      8 C6          0.3804   -4.0951    0.5365 C.3       1 <0>        -0.0053
      9 C7          1.0140   -4.6373    1.8192 C.3       1 <0>        -0.1498
     10 C8          0.8293   -6.1550    1.8771 C.3       1 <0>         0.0567
     11 O1          1.4211   -6.6615    3.0752 O.3       1 <0>        -0.2947
     12 C9          1.3444   -8.0019    3.2821 C.ar      1 <0>         0.1595
     13 C10         0.7200   -8.8005    2.3496 C.ar      1 <0>        -0.1789
     14 C11         0.6423  -10.1817    2.5655 C.ar      1 <0>         0.2005
     15 C12         1.2079  -10.7361    3.7406 C.ar      1 <0>        -0.1805
     16 C13         1.8371   -9.9024    4.6727 C.ar      1 <0>        -0.1394
     17 C14         1.9066   -8.5582    4.4395 C.ar      1 <0>         0.1073
     18 O2          2.5232   -7.7500    5.3427 O.3       1 <0>        -0.3036
     19 C15         3.0764   -8.3761    6.5020 C.3       1 <0>         0.0204
     20 C16         1.1142  -12.1352    3.9308 C.ar      1 <0>         0.4674
     21 N3          0.5022  -12.8554    2.9999 N.ar      1 <0>        -0.5746
     22 C17        -0.0116  -12.2935    1.9172 C.ar      1 <0>         0.3513
     23 N4          0.0452  -11.0032    1.6879 N.ar      1 <0>        -0.5464
     24 N5          1.6459  -12.7349    5.0551 N.pl3     1 <0>        -0.6376
     25 C18         1.6502  -14.1253    5.1681 C.ar      1 <0>         0.1705
     26 C19         1.8530  -14.9127    4.0395 C.ar      1 <0>        -0.1095
     27 C20         1.8578  -16.2859    4.1479 C.ar      1 <0>        -0.0440
     28 C21         1.6588  -16.8874    5.3925 C.ar      1 <0>        -0.0348
     29 C22         1.4554  -16.0941    6.5238 C.ar      1 <0>        -0.0635
     30 C23         1.4574  -14.7213    6.4100 C.ar      1 <0>        -0.1422
     31 C24         1.6628  -18.3600    5.5121 C.2       1 <0>         0.2018
     32 N6          1.8412  -19.2638    4.5730 N.2       1 <0>        -0.4965
     33 C25         1.8200  -20.5867    4.8276 C.ar      1 <0>         0.0764
     34 C26         1.9959  -21.6556    3.9164 C.ar      1 <0>        -0.0586
     35 C27         1.9442  -22.9469    4.3388 C.ar      1 <0>        -0.1109
     36 C28         1.7192  -23.2702    5.6698 C.ar      1 <0>        -0.0891
     37 C29         1.5426  -22.2561    6.5928 C.ar      1 <0>        -0.0691
     38 C30         1.5925  -20.9483    6.1766 C.ar      1 <0>        -0.1388
     39 S1          1.4345  -19.3672    6.9709 S.3       1 <0>        -0.0066
     40 H1          2.7090    1.4093   -1.0475 H         1 <0>         0.0847
     41 H2          1.0969    1.5795   -1.7826 H         1 <0>         0.0842
     42 H3          1.2845    1.6814   -0.0155 H         1 <0>         0.0398
     43 H4         -0.4081   -0.1411    0.1661 H         1 <0>         0.0609
     44 H5         -0.4990   -0.1869   -1.6114 H         1 <0>         0.1248
     45 H6         -1.2122   -2.3486   -0.6131 H         1 <0>         0.1374
     46 H7          0.2588   -2.5428   -1.5963 H         1 <0>         0.1392
     47 H8          2.5164   -2.7317    1.2342 H         1 <0>         0.1379
     48 H9          2.3890   -2.7616   -0.5409 H         1 <0>         0.1396
     49 H10         3.2351   -0.5706    0.2387 H         1 <0>         0.1244
     50 H11         1.7865   -0.3665    1.2534 H         1 <0>         0.0610
     51 H12        -0.6835   -4.3322    0.5283 H         1 <0>         0.1370
     52 H13         0.8613   -4.5529   -0.3280 H         1 <0>         0.1365
     53 H14         2.0779   -4.4002    1.8273 H         1 <0>         0.1005
     54 H15         0.5331   -4.1795    2.6836 H         1 <0>         0.1001
     55 H16        -0.2345   -6.3922    1.8690 H         1 <0>         0.0784
     56 H17         1.3103   -6.6128    1.0127 H         1 <0>         0.0786
     57 H18         0.2930   -8.3644    1.4586 H         1 <0>         0.1527
     58 H19         2.2695  -10.3205    5.5698 H         1 <0>         0.1422
     59 H20         2.2846   -8.8821    7.0544 H         1 <0>         0.0595
     60 H21         3.8292   -9.1034    6.1979 H         1 <0>         0.0599
     61 H22         3.5373   -7.6204    7.1381 H         1 <0>         0.1087
     62 H23        -0.4995  -12.9257    1.1901 H         1 <0>         0.2010
     63 H24         2.0166  -12.1893    5.7664 H         1 <0>         0.4210
     64 H25         2.0065  -14.4470    3.0773 H         1 <0>         0.1418
     65 H26         2.0149  -16.8968    3.2713 H         1 <0>         0.1420
     66 H27         1.3012  -16.5564    7.4876 H         1 <0>         0.1347
     67 H28         1.3046  -14.1073    7.2852 H         1 <0>         0.1353
     68 H29         2.1731  -21.4427    2.8726 H         1 <0>         0.1342
     69 H30         2.0814  -23.7415    3.6203 H         1 <0>         0.1368
     70 H31         1.6820  -24.3036    5.9812 H         1 <0>         0.1417
     71 H32         1.3662  -22.4905    7.6322 H         1 <0>         0.1360
     72 H33         0.1843   -2.2217    1.3208 H         1 <0>         0.4218
@<TRIPOS>BOND
     1    1    2 1
     2    1   40 1
     3    1   41 1
     4    1   42 1
     5    2    7 1
     6    2    3 1
     7    3    4 1
     8    3   43 1
     9    3   44 1
    10    4    5 1
    11    4   45 1
    12    4   46 1
    13    5    6 1
    14    5    8 1
    15    5   72 1
    16    6    7 1
    17    6   47 1
    18    6   48 1
    19    7   49 1
    20    7   50 1
    21    8    9 1
    22    8   51 1
    23    8   52 1
    24    9   10 1
    25    9   53 1
    26    9   54 1
    27   10   11 1
    28   10   55 1
    29   10   56 1
    30   11   12 1
    31   12   17 ar
    32   12   13 ar
    33   13   14 ar
    34   13   57 1
    35   14   23 ar
    36   14   15 ar
    37   15   16 ar
    38   15   20 ar
    39   16   17 ar
    40   16   58 1
    41   17   18 1
    42   18   19 1
    43   19   59 1
    44   19   60 1
    45   19   61 1
    46   20   21 ar
    47   20   24 1
    48   21   22 ar
    49   22   23 ar
    50   22   62 1
    51   24   25 1
    52   24   63 1
    53   25   30 ar
    54   25   26 ar
    55   26   27 ar
    56   26   64 1
    57   27   28 ar
    58   27   65 1
    59   28   29 ar
    60   28   31 1
    61   29   30 ar
    62   29   66 1
    63   30   67 1
    64   31   39 1
    65   31   32 2
    66   32   33 1
    67   33   38 ar
    68   33   34 ar
    69   34   35 ar
    70   34   68 1
    71   35   36 ar
    72   35   69 1
    73   36   37 ar
    74   36   70 1
    75   37   38 ar
    76   37   71 1
    77   38   39 1
@<TRIPOS>MOLECULE
CHEMBL236205
   42    44     0     0     0
SMALL
USER_CHARGES

@<TRIPOS>ATOM
      1 C1          0.0314    1.3676   -0.3883 C.ar      1 <0>        -0.1273
      2 C2          1.2191    2.0578   -0.5283 C.ar      1 <0>        -0.0932
      3 C3          2.3993    1.3675   -0.7635 C.ar      1 <0>         0.0841
      4 C4          2.3872   -0.0165   -0.8578 C.ar      1 <0>        -0.1609
      5 C5          1.2004   -0.7081   -0.7175 C.ar      1 <0>        -0.1140
      6 C6          0.0185   -0.0178   -0.4826 C.ar      1 <0>         0.1306
      7 N1         -1.1854   -0.7185   -0.3402 N.am      1 <0>        -0.6722
      8 C7         -1.1778   -2.0645   -0.2714 C.2       1 <0>         0.5953
      9 O1         -0.1215   -2.6640   -0.2040 O.2       1 <0>        -0.4896
     10 C8         -2.4470   -2.8086   -0.2777 C.2       1 <0>        -0.0555
     11 C9         -2.6038   -4.1839   -0.2613 C.2       1 <0>        -0.1374
     12 C10        -3.9838   -4.3989   -0.2762 C.2       1 <0>         0.0022
     13 N2         -4.5720   -3.2302   -0.2995 N.2       1 <0>        -0.2611
     14 N3         -3.7068   -2.2809   -0.2951 N.pl3     1 <0>        -0.2787
     15 C11        -4.0228   -0.8505   -0.3107 C.3       1 <0>         0.1130
     16 C12        -3.8998   -0.3166   -1.7392 C.3       1 <0>        -0.1107
     17 C13        -4.2248    1.1549   -1.7553 C.ar      1 <0>        -0.0460
     18 C14        -5.5259    1.5922   -1.9515 C.ar      1 <0>        -0.1620
     19 C15        -5.7860    2.9495   -1.9601 C.ar      1 <0>         0.1080
     20 N4         -4.8143    3.8237   -1.7850 N.ar      1 <0>        -0.4796
     21 C16        -3.5657    3.4440   -1.5958 C.ar      1 <0>         0.1090
     22 C17        -3.2309    2.1034   -1.5686 C.ar      1 <0>        -0.1802
     23 O2          3.5683    2.0479   -0.9022 O.3       1 <0>        -0.3098
     24 C18         4.7450    1.2736   -1.1426 C.3       1 <0>         0.6037
     25 F1          4.5906    0.5463   -2.3277 F         1 <0>        -0.1644
     26 F2          5.8484    2.1258   -1.2590 F         1 <0>        -0.1299
     27 F3          4.9481    0.3906   -0.0767 F         1 <0>        -0.1638
     28 H1         -0.8867    1.9048   -0.2012 H         1 <0>         0.1394
     29 H2          1.2293    3.1352   -0.4551 H         1 <0>         0.1469
     30 H3          3.3064   -0.5531   -1.0412 H         1 <0>         0.1393
     31 H4          1.1911   -1.7855   -0.7913 H         1 <0>         0.1840
     32 H5         -2.0250   -0.2351   -0.2912 H         1 <0>         0.4077
     33 H6         -1.8248   -4.9316   -0.2418 H         1 <0>         0.1704
     34 H7         -4.4778   -5.3594   -0.2697 H         1 <0>         0.1947
     35 H8         -5.0412   -0.6994    0.0472 H         1 <0>         0.1252
     36 H9         -3.3271   -0.3176    0.3375 H         1 <0>         0.0963
     37 H10        -2.8813   -0.4676   -2.0971 H         1 <0>         0.0886
     38 H11        -4.5955   -0.8494   -2.3874 H         1 <0>         0.1031
     39 H12        -6.3258    0.8812   -2.0961 H         1 <0>         0.1403
     40 H13        -6.7967    3.2983   -2.1122 H         1 <0>         0.1611
     41 H14        -2.7965    4.1892   -1.4564 H         1 <0>         0.1609
     42 H15        -2.2073    1.7985   -1.4083 H         1 <0>         0.1327
@<TRIPOS>BOND
     1    1    6 ar
     2    1    2 ar
     3    1   28 1
     4    2    3 ar
     5    2   29 1
     6    3    4 ar
     7    3   23 1
     8    4    5 ar
     9    4   30 1
    10    5    6 ar
    11    5   31 1
    12    6    7 1
    13    7    8 am
    14    7   32 1
    15    8    9 2
    16    8   10 1
    17   10   14 1
    18   10   11 2
    19   11   12 1
    20   11   33 1
    21   12   13 2
    22   12   34 1
    23   13   14 1
    24   14   15 1
    25   15   16 1
    26   15   35 1
    27   15   36 1
    28   16   17 1
    29   16   37 1
    30   16   38 1
    31   17   22 ar
    32   17   18 ar
    33   18   19 ar
    34   18   39 1
    35   19   20 ar
    36   19   40 1
    37   20   21 ar
    38   21   22 ar
    39   21   41 1
    40   22   42 1
    41   23   24 1
    42   24   25 1
    43   24   26 1
    44   24   27 1
@<TRIPOS>MOLECULE
CHEMBL406404
   65    69     0     0     0
SMALL
USER_CHARGES

@<TRIPOS>ATOM
      1 C1          5.4255   -6.4172    4.2371 C.3       1 <0>        -0.1150
      2 C2          4.1120   -6.4019    3.4985 C.ar      1 <0>        -0.0741
      3 C3          3.8133   -7.4100    2.6004 C.ar      1 <0>        -0.1069
      4 C4          2.6093   -7.4005    1.9207 C.ar      1 <0>        -0.1286
      5 C5          1.6998   -6.3813    2.1373 C.ar      1 <0>         0.0629
      6 C6          1.9982   -5.3667    3.0399 C.ar      1 <0>         0.1336
      7 C7          3.2059   -5.3838    3.7240 C.ar      1 <0>        -0.0986
      8 N1          1.0801   -4.3325    3.2623 N.am      1 <0>        -0.6769
      9 C8          1.0028   -3.7493    4.4749 C.2       1 <0>         0.7071
     10 O1          1.7803   -4.0681    5.3536 O.2       1 <0>        -0.5496
     11 N2          0.0636   -2.8125    4.7134 N.am      1 <0>        -0.6804
     12 C9          0.0502   -2.1308    5.9343 C.ar      1 <0>         0.1700
     13 C10         1.2466   -1.8360    6.5773 C.ar      1 <0>        -0.1135
     14 C11         1.2364   -1.1646    7.7811 C.ar      1 <0>        -0.0774
     15 C12         0.0236   -0.7804    8.3537 C.ar      1 <0>        -0.0678
     16 C13        -1.1757   -1.0771    7.7058 C.ar      1 <0>        -0.0929
     17 C14        -1.1592   -1.7442    6.4997 C.ar      1 <0>        -0.1420
     18 C15         0.0094   -0.0591    9.6474 C.ar      1 <0>        -0.0076
     19 C16         0.7009    1.1380    9.7887 C.ar      1 <0>        -0.0964
     20 C17         0.6881    1.8116   10.9973 C.ar      1 <0>        -0.1579
     21 C18        -0.0108    1.3063   12.0796 C.ar      1 <0>         0.1315
     22 C19        -0.7123    0.1069   11.9611 C.ar      1 <0>         0.0796
     23 C20        -0.7087   -0.5782   10.7397 C.ar      1 <0>        -0.1578
     24 C21        -1.5302   -1.7803   10.9328 C.2       1 <0>         0.3786
     25 N3         -1.9611   -1.7608   12.1644 N.2       1 <0>        -0.3534
     26 O2         -1.4640   -0.6121   12.8213 O.3       1 <0>        -0.0777
     27 N4         -1.7987   -2.7554    9.9820 N.pl3     1 <0>        -0.8181
     28 O3         -0.0131    1.9800   13.2605 O.3       1 <0>        -0.2879
     29 C22         0.7267    3.2015   13.3119 C.3       1 <0>         0.0639
     30 C23         0.6075    3.8115   14.7100 C.3       1 <0>         0.0545
     31 N5          1.2495    2.9232   15.6881 N.3       1 <0>        -0.5310
     32 C24         0.7795    3.2126   17.0507 C.3       1 <0>         0.0193
     33 C25         1.4266    2.2277   18.0280 C.3       1 <0>         0.0623
     34 O4          2.8495    2.3176   17.9155 O.3       1 <0>        -0.3853
     35 C26         3.3417    2.0411   16.6015 C.3       1 <0>         0.0632
     36 C27         2.7140    3.0242   15.6098 C.3       1 <0>         0.0145
     37 F1          0.5237   -6.3713    1.4726 F         1 <0>        -0.1387
     38 H1          5.3118   -6.9710    5.1690 H         1 <0>         0.0755
     39 H2          6.1842   -6.8977    3.6192 H         1 <0>         0.0705
     40 H3          5.7305   -5.3942    4.4572 H         1 <0>         0.0696
     41 H4          4.5223   -8.2065    2.4292 H         1 <0>         0.1353
     42 H5          2.3790   -8.1894    1.2199 H         1 <0>         0.1411
     43 H6          3.4389   -4.5993    4.4288 H         1 <0>         0.1555
     44 H7          0.4999   -4.0362    2.5437 H         1 <0>         0.4124
     45 H8         -0.6031   -2.6112    4.0382 H         1 <0>         0.4112
     46 H9          2.1852   -2.1337    6.1336 H         1 <0>         0.1401
     47 H10         2.1663   -0.9364    8.2807 H         1 <0>         0.1323
     48 H11        -2.1160   -0.7812    8.1471 H         1 <0>         0.1319
     49 H12        -2.0872   -1.9703    5.9955 H         1 <0>         0.1322
     50 H13         1.2505    1.5438    8.9522 H         1 <0>         0.1395
     51 H14         1.2293    2.7409   11.0971 H         1 <0>         0.1448
     52 H15        -1.3354   -2.7426    9.1299 H         1 <0>         0.4164
     53 H16        -2.4496   -3.4497   10.1697 H         1 <0>         0.4128
     54 H17         1.7751    3.0010   13.0912 H         1 <0>         0.0655
     55 H18         0.3274    3.8993   12.5758 H         1 <0>         0.0707
     56 H19         1.0990    4.7842   14.7251 H         1 <0>         0.0633
     57 H20        -0.4453    3.9324   14.9651 H         1 <0>         0.0899
     58 H21         1.0572    4.2309   17.3229 H         1 <0>         0.0435
     59 H22        -0.3046    3.1070   17.0919 H         1 <0>         0.0893
     60 H23         1.1256    2.4744   19.0461 H         1 <0>         0.0995
     61 H24         1.1059    1.2138   17.7886 H         1 <0>         0.0625
     62 H25         4.4259    2.1529   16.5880 H         1 <0>         0.0985
     63 H26         3.0768    1.0218   16.3206 H         1 <0>         0.0613
     64 H27         3.0421    2.7810   14.5992 H         1 <0>         0.0847
     65 H28         3.0227    4.0394   15.8590 H         1 <0>         0.0445
@<TRIPOS>BOND
     1    1    2 1
     2    1   38 1
     3    1   39 1
     4    1   40 1
     5    2    7 ar
     6    2    3 ar
     7    3    4 ar
     8    3   41 1
     9    4    5 ar
    10    4   42 1
    11    5    6 ar
    12    5   37 1
    13    6    7 ar
    14    6    8 1
    15    7   43 1
    16    8    9 am
    17    8   44 1
    18    9   10 2
    19    9   11 am
    20   11   12 1
    21   11   45 1
    22   12   17 ar
    23   12   13 ar
    24   13   14 ar
    25   13   46 1
    26   14   15 ar
    27   14   47 1
    28   15   16 ar
    29   15   18 1
    30   16   17 ar
    31   16   48 1
    32   17   49 1
    33   18   23 ar
    34   18   19 ar
    35   19   20 ar
    36   19   50 1
    37   20   21 ar
    38   20   51 1
    39   21   22 ar
    40   21   28 1
    41   22   26 1
    42   22   23 ar
    43   23   24 1
    44   24   25 2
    45   24   27 1
    46   25   26 1
    47   27   52 1
    48   27   53 1
    49   28   29 1
    50   29   30 1
    51   29   54 1
    52   29   55 1
    53   30   31 1
    54   30   56 1
    55   30   57 1
    56   31   36 1
    57   31   32 1
    58   32   33 1
    59   32   58 1
    60   32   59 1
    61   33   34 1
    62   33   60 1
    63   33   61 1
    64   34   35 1
    65   35   36 1
    66   35   62 1
    67   35   63 1
    68   36   64 1
    69   36   65 1
@<TRIPOS>MOLECULE
CHEMBL406404__1
   66    70     0     0     0
SMALL
USER_CHARGES

@<TRIPOS>ATOM
      1 C1          6.7548   -5.6898    4.2222 C.3       1 <0>        -0.1148
      2 C2          5.4732   -5.7686    3.4333 C.ar      1 <0>        -0.0751
      3 C3          5.2921   -6.7819    2.5100 C.ar      1 <0>        -0.1038
      4 C4          4.1178   -6.8585    1.7841 C.ar      1 <0>        -0.1279
      5 C5          3.1204   -5.9205    1.9796 C.ar      1 <0>         0.0659
      6 C6          3.3005   -4.9008    2.9076 C.ar      1 <0>         0.1294
      7 C7          4.4789   -4.8315    3.6378 C.ar      1 <0>        -0.0973
      8 N1          2.2930   -3.9488    3.1087 N.am      1 <0>        -0.6749
      9 C8          2.1116   -3.4072    4.3295 C.2       1 <0>         0.7083
     10 O1          2.8737   -3.6826    5.2361 O.2       1 <0>        -0.5505
     11 N2          1.0856   -2.5604    4.5454 N.am      1 <0>        -0.6816
     12 C9          0.9620   -1.9115    5.7779 C.ar      1 <0>         0.1832
     13 C10         2.1004   -1.5514    6.4894 C.ar      1 <0>        -0.1154
     14 C11         1.9816   -0.9121    7.7048 C.ar      1 <0>        -0.0722
     15 C12         0.7173   -0.6260    8.2203 C.ar      1 <0>        -0.0904
     16 C13        -0.4236   -0.9881    7.5038 C.ar      1 <0>        -0.0892
     17 C14        -0.2988   -1.6227    6.2865 C.ar      1 <0>        -0.1433
     18 C15         0.5865    0.0605    9.5264 C.ar      1 <0>         0.0269
     19 C16         1.1845    1.2984    9.7290 C.ar      1 <0>        -0.1046
     20 C17         1.0628    1.9397   10.9492 C.ar      1 <0>        -0.1392
     21 C18         0.3463    1.3611   11.9822 C.ar      1 <0>         0.1023
     22 C19        -0.2628    0.1197   11.8016 C.ar      1 <0>         0.0864
     23 C20        -0.1488   -0.5333   10.5680 C.ar      1 <0>        -0.1582
     24 C21        -0.8931   -1.7933   10.6922 C.2       1 <0>         0.3858
     25 N3         -1.3869   -1.8337   11.8994 N.2       1 <0>        -0.3476
     26 O2         -1.0056   -0.6702   12.6057 O.3       1 <0>        -0.0867
     27 N4         -1.0438   -2.7609    9.7082 N.pl3     1 <0>        -0.8125
     28 O3          0.2364    2.0038   13.1752 O.3       1 <0>        -0.3215
     29 C22         0.8855    3.2716   13.2912 C.3       1 <0>         0.0239
     30 C23         0.6525    3.8374   14.6936 C.3       1 <0>         0.0004
     31 N5          1.2737    2.9525   15.6880 N.4       1 <0>        -0.3882
     32 C24         0.9131    3.4042   17.0390 C.3       1 <0>        -0.0432
     33 C25         1.5614    2.4806   18.0733 C.3       1 <0>         0.0349
     34 O4          2.9788    2.4785   17.8809 O.3       1 <0>        -0.3560
     35 C26         3.3794    2.0681   16.5706 C.3       1 <0>         0.0364
     36 C27         2.7345    2.9910   15.5335 C.3       1 <0>        -0.0495
     37 F1          1.9733   -5.9947    1.2699 F         1 <0>        -0.1376
     38 H1          6.6519   -6.2670    5.1411 H         1 <0>         0.0752
     39 H2          7.5730   -6.0962    3.6276 H         1 <0>         0.0717
     40 H3          6.9665   -4.6494    4.4685 H         1 <0>         0.0689
     41 H4          6.0699   -7.5150    2.3552 H         1 <0>         0.1367
     42 H5          3.9794   -7.6512    1.0638 H         1 <0>         0.1427
     43 H6          4.6201   -4.0431    4.3622 H         1 <0>         0.1534
     44 H7          1.7259   -3.6792    2.3694 H         1 <0>         0.4134
     45 H8          0.4328   -2.4012    3.8458 H         1 <0>         0.4135
     46 H9          3.0790   -1.7731    6.0898 H         1 <0>         0.1444
     47 H10         2.8665   -0.6331    8.2576 H         1 <0>         0.1322
     48 H11        -1.4036   -0.7682    7.9008 H         1 <0>         0.1321
     49 H12        -1.1816   -1.8993    5.7293 H         1 <0>         0.1358
     50 H13         1.7466    1.7615    8.9315 H         1 <0>         0.1467
     51 H14         1.5319    2.9012   11.0970 H         1 <0>         0.1463
     52 H15        -0.5467   -2.6902    8.8783 H         1 <0>         0.4193
     53 H16        -1.6462   -3.5077    9.8507 H         1 <0>         0.4171
     54 H17         1.9553    3.1490   13.1221 H         1 <0>         0.0884
     55 H18         0.4768    3.9583   12.5499 H         1 <0>         0.1139
     56 H19         1.0965    4.8304   14.7631 H         1 <0>         0.1521
     57 H20        -0.4185    3.9040   14.8852 H         1 <0>         0.1457
     58 H21         1.2686    4.4237   17.1885 H         1 <0>         0.1402
     59 H22        -0.1703    3.3760   17.1547 H         1 <0>         0.1445
     60 H23         1.3308    2.8389   19.0765 H         1 <0>         0.1433
     61 H24         1.1758    1.4685   17.9499 H         1 <0>         0.0827
     62 H25         4.4645    2.1279   16.4863 H         1 <0>         0.1425
     63 H26         3.0560    1.0419   16.3957 H         1 <0>         0.0822
     64 H27         3.0031    2.6560   14.5316 H         1 <0>         0.1397
     65 H28         3.0893    4.0106   15.6836 H         1 <0>         0.1415
     66 H29         0.9455    2.0084   15.5500 H         1 <0>         0.4318
@<TRIPOS>BOND
     1    1    2 1
     2    1   38 1
     3    1   39 1
     4    1   40 1
     5    2    7 ar
     6    2    3 ar
     7    3    4 ar
     8    3   41 1
     9    4    5 ar
    10    4   42 1
    11    5    6 ar
    12    5   37 1
    13    6    7 ar
    14    6    8 1
    15    7   43 1
    16    8    9 am
    17    8   44 1
    18    9   10 2
    19    9   11 am
    20   11   12 1
    21   11   45 1
    22   12   17 ar
    23   12   13 ar
    24   13   14 ar
    25   13   46 1
    26   14   15 ar
    27   14   47 1
    28   15   16 ar
    29   15   18 1
    30   16   17 ar
    31   16   48 1
    32   17   49 1
    33   18   23 ar
    34   18   19 ar
    35   19   20 ar
    36   19   50 1
    37   20   21 ar
    38   20   51 1
    39   21   22 ar
    40   21   28 1
    41   22   26 1
    42   22   23 ar
    43   23   24 1
    44   24   25 2
    45   24   27 1
    46   25   26 1
    47   27   52 1
    48   27   53 1
    49   28   29 1
    50   29   30 1
    51   29   54 1
    52   29   55 1
    53   30   31 1
    54   30   56 1
    55   30   57 1
    56   31   36 1
    57   31   32 1
    58   31   66 1
    59   32   33 1
    60   32   58 1
    61   32   59 1
    62   33   34 1
    63   33   60 1
    64   33   61 1
    65   34   35 1
    66   35   36 1
    67   35   62 1
    68   35   63 1
    69   36   64 1
    70   36   65 1
@<TRIPOS>MOLECULE
CHEMBL383618
   32    35     0     0     0
SMALL
USER_CHARGES

@<TRIPOS>ATOM
      1 C1         -0.0201    1.3728   -0.0560 C.ar      1 <0>        -0.1064
      2 C2          1.1657    2.0928   -0.0258 C.ar      1 <0>        -0.1243
      3 C3          2.3783    1.4423   -0.0153 C.ar      1 <0>        -0.0748
      4 C4          2.4167    0.0442   -0.0347 C.ar      1 <0>         0.0606
      5 C5          1.2121   -0.6799   -0.0647 C.ar      1 <0>         0.0454
      6 C6         -0.0005   -0.0061   -0.0754 C.ar      1 <0>        -0.1081
      7 N1          1.5650   -2.0172   -0.0785 N.pl3     1 <0>        -0.5814
      8 H1          0.9572   -2.7729   -0.0998 H         1 <0>         0.4350
      9 C7          2.9340   -2.0749   -0.0572 C.2       1 <0>         0.3870
     10 N2          3.4283   -0.8586   -0.0314 N.2       1 <0>        -0.5329
     11 C8          3.7304   -3.3137   -0.0619 C.2       1 <0>        -0.2838
     12 C9          5.1211   -3.2538   -0.1659 C.2       1 <0>         0.3609
     13 C10         5.8659   -4.5186   -0.1652 C.ar      1 <0>        -0.1079
     14 C11         7.2600   -4.5567   -0.2646 C.ar      1 <0>        -0.1005
     15 C12         7.8868   -5.7849   -0.2565 C.ar      1 <0>         0.0662
     16 N3          7.1942   -6.9056   -0.1579 N.ar      1 <0>        -0.4334
     17 C13         5.8816   -6.9224   -0.0619 C.ar      1 <0>         0.0802
     18 C14         5.1612   -5.7316   -0.0611 C.ar      1 <0>         0.1595
     19 N4          3.7858   -5.7227    0.0379 N.am      1 <0>        -0.6291
     20 C15         3.0901   -4.5728    0.0450 C.2       1 <0>         0.5784
     21 O1          1.8759   -4.6147    0.1400 O.2       1 <0>        -0.5533
     22 N5          5.7724   -2.0486   -0.2662 N.pl3     1 <0>        -0.7984
     23 H2         -0.9650    1.8958   -0.0597 H         1 <0>         0.1303
     24 H3          1.1367    3.1723   -0.0109 H         1 <0>         0.1297
     25 H4          3.2972    2.0093    0.0075 H         1 <0>         0.1283
     26 H5         -0.9272   -0.5602   -0.0985 H         1 <0>         0.1231
     27 H6          7.8329   -3.6449   -0.3463 H         1 <0>         0.1476
     28 H7          8.9631   -5.8316   -0.3326 H         1 <0>         0.1693
     29 H8          5.3607   -7.8653    0.0162 H         1 <0>         0.1731
     30 H9          5.2744   -1.2201   -0.1863 H         1 <0>         0.4348
     31 H10         6.7304   -2.0261   -0.4168 H         1 <0>         0.4026
     32 H11         3.3102   -6.5651    0.1091 H         1 <0>         0.4225
@<TRIPOS>BOND
     1    1    6 ar
     2    1    2 ar
     3    1   23 1
     4    2    3 ar
     5    2   24 1
     6    3    4 ar
     7    3   25 1
     8    4   10 1
     9    4    5 ar
    10    5    6 ar
    11    5    7 1
    12    6   26 1
    13    7    8 1
    14    7    9 1
    15    9   10 2
    16    9   11 1
    17   11   20 1
    18   11   12 2
    19   12   13 1
    20   12   22 1
    21   13   18 ar
    22   13   14 ar
    23   14   15 ar
    24   14   27 1
    25   15   16 ar
    26   15   28 1
    27   16   17 ar
    28   17   18 ar
    29   17   29 1
    30   18   19 1
    31   19   20 am
    32   19   32 1
    33   20   21 2
    34   22   30 1
    35   22   31 1
@<TRIPOS>MOLECULE
CHEMBL410903
   60    64     0     0     0
SMALL
USER_CHARGES

@<TRIPOS>ATOM
      1 C1         -0.6761    0.0852    1.8934 C.3       1 <0>         0.0148
      2 O1         -0.2795   -0.5751    0.6898 O.3       1 <0>        -0.2866
      3 C2         -1.1442   -0.5201   -0.3582 C.ar      1 <0>         0.1342
      4 C3         -2.3250    0.1516   -0.2254 C.ar      1 <0>        -0.1359
      5 C4         -3.2168    0.2088   -1.3069 C.ar      1 <0>        -0.0903
      6 C5         -4.4478    0.8952   -1.2066 C.ar      1 <0>         0.2834
      7 C6         -5.2754    0.9085   -2.3154 C.ar      1 <0>        -0.2639
      8 C7         -4.8805    0.2579   -3.4776 C.ar      1 <0>         0.2259
      9 N1         -3.7350   -0.3771   -3.5600 N.ar      1 <0>        -0.4819
     10 C8         -2.8859   -0.4301   -2.5268 C.ar      1 <0>         0.1816
     11 C9         -1.6634   -1.1138   -2.6324 C.ar      1 <0>        -0.2357
     12 C10        -0.8113   -1.1489   -1.5664 C.ar      1 <0>         0.2160
     13 O2          0.3727   -1.8067   -1.6760 O.3       1 <0>        -0.2777
     14 C11         0.6562   -2.4277   -2.9314 C.3       1 <0>         0.0118
     15 O3         -4.8072    1.5212   -0.0587 O.3       1 <0>        -0.2125
     16 C12        -5.9574    2.2445   -0.0599 C.ar      1 <0>         0.0432
     17 C13        -7.1885    1.5838   -0.0096 C.ar      1 <0>        -0.1382
     18 C14        -8.3569    2.2825   -0.0095 C.ar      1 <0>        -0.0816
     19 C15        -8.3303    3.6833   -0.0598 C.ar      1 <0>        -0.0036
     20 C16        -7.0855    4.3571   -0.1104 C.ar      1 <0>        -0.0530
     21 C17        -5.8965    3.6087   -0.1045 C.ar      1 <0>        -0.0797
     22 C18        -7.0592    5.7619   -0.1600 C.ar      1 <0>        -0.0702
     23 C19        -8.2247    6.4682   -0.1593 C.ar      1 <0>        -0.1151
     24 C20        -9.4550    5.8253   -0.1097 C.ar      1 <0>        -0.0557
     25 C21        -9.5282    4.4409   -0.0607 C.ar      1 <0>        -0.1248
     26 C22       -10.8379    3.7649   -0.0091 C.2       1 <0>         0.5624
     27 O4        -10.8946    2.5603    0.1467 O.2       1 <0>        -0.5308
     28 N2        -11.9719    4.4823   -0.1347 N.am      1 <0>        -0.7139
     29 C23       -13.2729    3.8108   -0.0834 C.3       1 <0>         0.1379
     30 C24       -13.6768    3.3328   -1.4935 C.3       1 <0>        -0.1340
     31 C25       -15.2084    3.5576   -1.5466 C.3       1 <0>        -0.1260
     32 C26       -15.3853    4.8891   -0.7753 C.3       1 <0>        -0.1259
     33 C27       -14.3592    4.8003    0.3732 C.3       1 <0>        -0.1331
     34 H1          0.1018   -0.0355    2.6474 H         1 <0>         0.1186
     35 H2         -0.8265    1.1461    1.6932 H         1 <0>         0.0667
     36 H3         -1.6061   -0.3512    2.2578 H         1 <0>         0.0673
     37 H4         -2.5717    0.6364    0.7077 H         1 <0>         0.1725
     38 H5         -6.2246    1.4224   -2.2774 H         1 <0>         0.1853
     39 H6         -5.5345    0.2748   -4.3369 H         1 <0>         0.2122
     40 H7         -1.3963   -1.6064   -3.5557 H         1 <0>         0.1712
     41 H8          1.6293   -2.9163   -2.8835 H         1 <0>         0.1214
     42 H9         -0.1121   -3.1688   -3.1518 H         1 <0>         0.0693
     43 H10         0.6675   -1.6716   -3.7164 H         1 <0>         0.0692
     44 H11        -7.2129    0.5048    0.0293 H         1 <0>         0.1375
     45 H12        -9.3011    1.7595    0.0290 H         1 <0>         0.1844
     46 H13        -4.9398    4.1087   -0.1390 H         1 <0>         0.1455
     47 H14        -6.1136    6.2822   -0.1984 H         1 <0>         0.1403
     48 H15        -8.1911    7.5470   -0.1977 H         1 <0>         0.1415
     49 H16       -10.3637    6.4090   -0.1100 H         1 <0>         0.1357
     50 H17       -11.9267    5.4432   -0.2589 H         1 <0>         0.4008
     51 H18       -13.2286    2.9632    0.6005 H         1 <0>         0.0964
     52 H19       -13.1769    3.9297   -2.2563 H         1 <0>         0.0696
     53 H20       -13.4417    2.2760   -1.6199 H         1 <0>         0.0721
     54 H21       -15.5483    3.6600   -2.5771 H         1 <0>         0.0715
     55 H22       -15.7355    2.7469   -1.0436 H         1 <0>         0.0719
     56 H23       -15.1614    5.7373   -1.4222 H         1 <0>         0.0681
     57 H24       -16.3971    4.9681   -0.3776 H         1 <0>         0.0722
     58 H25       -14.8427    4.4325    1.2782 H         1 <0>         0.0790
     59 H26       -13.9184    5.7801    0.5567 H         1 <0>         0.0714
     60 H27        -3.4977   -0.8188   -4.3903 H         1 <0>         0.4473
@<TRIPOS>BOND
     1    1    2 1
     2    1   34 1
     3    1   35 1
     4    1   36 1
     5    2    3 1
     6    3   12 ar
     7    3    4 ar
     8    4    5 ar
     9    4   37 1
    10    5   10 ar
    11    5    6 ar
    12    6    7 ar
    13    6   15 1
    14    7    8 ar
    15    7   38 1
    16    8    9 ar
    17    8   39 1
    18    9   10 ar
    19    9   60 1
    20   10   11 ar
    21   11   12 ar
    22   11   40 1
    23   12   13 1
    24   13   14 1
    25   14   41 1
    26   14   42 1
    27   14   43 1
    28   15   16 1
    29   16   21 ar
    30   16   17 ar
    31   17   18 ar
    32   17   44 1
    33   18   19 ar
    34   18   45 1
    35   19   25 ar
    36   19   20 ar
    37   20   21 ar
    38   20   22 ar
    39   21   46 1
    40   22   23 ar
    41   22   47 1
    42   23   24 ar
    43   23   48 1
    44   24   25 ar
    45   24   49 1
    46   25   26 1
    47   26   27 2
    48   26   28 am
    49   28   29 1
    50   28   50 1
    51   29   33 1
    52   29   30 1
    53   29   51 1
    54   30   31 1
    55   30   52 1
    56   30   53 1
    57   31   32 1
    58   31   54 1
    59   31   55 1
    60   32   33 1
    61   32   56 1
    62   32   57 1
    63   33   58 1
    64   33   59 1
@<TRIPOS>MOLECULE
CHEMBL250482
   55    58     0     0     0
SMALL
USER_CHARGES

@<TRIPOS>ATOM
      1 C1          0.0424    1.4164    0.0337 C.ar      1 <0>        -0.2460
      2 C2          1.2549    2.0829    0.0177 C.ar      1 <0>         0.0068
      3 C3          2.4279    1.3331    0.1604 C.ar      1 <0>        -0.2736
      4 C4          2.3257   -0.0605    0.3135 C.ar      1 <0>         0.4591
      5 N1          1.1389   -0.6473    0.3217 N.ar      1 <0>        -0.5472
      6 C5          0.0225    0.0419    0.1887 C.ar      1 <0>         0.1895
      7 N2          3.4707   -0.8225    0.4557 N.pl3     1 <0>        -0.6966
      8 C6          3.3776   -2.2840    0.4969 C.3       1 <0>         0.1646
      9 C7          4.7563   -2.8709    0.6568 C.ar      1 <0>        -0.0640
     10 C8          5.5278   -3.1830   -0.4522 C.ar      1 <0>        -0.1533
     11 C9          6.7877   -3.7199   -0.2666 C.ar      1 <0>         0.0989
     12 N3          7.2568   -3.9359    0.9467 N.ar      1 <0>        -0.4792
     13 C10         6.5513   -3.6513    2.0238 C.ar      1 <0>         0.0991
     14 C11         5.2858   -3.1063    1.9164 C.ar      1 <0>        -0.1529
     15 C12         3.7462    1.9924    0.1499 C.2       1 <0>         0.5790
     16 O1          4.7508    1.3467    0.3794 O.2       1 <0>        -0.5291
     17 N4          3.8381    3.3109   -0.1141 N.am      1 <0>        -0.6665
     18 C13         5.0942    3.9147   -0.2306 C.ar      1 <0>         0.1394
     19 C14         5.2763    5.2276    0.1843 C.ar      1 <0>        -0.1411
     20 C15         6.5180    5.8210    0.0678 C.ar      1 <0>        -0.0973
     21 C16         7.5791    5.1096   -0.4616 C.ar      1 <0>        -0.0870
     22 C17         7.4010    3.8024   -0.8759 C.ar      1 <0>        -0.0941
     23 C18         6.1635    3.2010   -0.7561 C.ar      1 <0>        -0.1152
     24 C19         8.9324    5.7605   -0.5876 C.3       1 <0>        -0.0455
     25 C20         9.3558    5.7763   -2.0578 C.3       1 <0>        -0.1106
     26 C21        10.7298    6.4372   -2.1857 C.3       1 <0>        -0.1202
     27 C22        11.7539    5.6469   -1.3686 C.3       1 <0>        -0.1214
     28 C23        11.3305    5.6311    0.1016 C.3       1 <0>        -0.1203
     29 C24         9.9565    4.9703    0.2296 C.3       1 <0>        -0.1112
     30 H1         -0.8817    1.9656   -0.0695 H         1 <0>         0.1406
     31 H2          1.2951    3.1555   -0.1024 H         1 <0>         0.1348
     32 H3         -0.9250   -0.4764    0.2009 H         1 <0>         0.1637
     33 H4          4.3356   -0.3894    0.5283 H         1 <0>         0.4270
     34 H5          2.7547   -2.5847    1.3394 H         1 <0>         0.0816
     35 H6          2.9338   -2.6460   -0.4305 H         1 <0>         0.0790
     36 H7          5.1488   -3.0091   -1.4484 H         1 <0>         0.1359
     37 H8          7.3949   -3.9658   -1.1253 H         1 <0>         0.1583
     38 H9          6.9689   -3.8425    3.0013 H         1 <0>         0.1585
     39 H10         4.7148   -2.8707    2.8024 H         1 <0>         0.1364
     40 H11         3.0331    3.8409   -0.2232 H         1 <0>         0.4104
     41 H12         4.4479    5.7840    0.5971 H         1 <0>         0.1251
     42 H13         6.6603    6.8419    0.3902 H         1 <0>         0.1259
     43 H14         8.2315    3.2497   -1.2896 H         1 <0>         0.1242
     44 H15         6.0263    2.1783   -1.0751 H         1 <0>         0.1327
     45 H16         8.8801    6.7830   -0.2135 H         1 <0>         0.0774
     46 H17         9.4081    4.7539   -2.4318 H         1 <0>         0.0637
     47 H18         8.6262    6.3393   -2.6399 H         1 <0>         0.0628
     48 H19        11.0314    6.4484   -3.2331 H         1 <0>         0.0624
     49 H20        10.6775    7.4596   -1.8117 H         1 <0>         0.0619
     50 H21        11.8062    4.6245   -1.7426 H         1 <0>         0.0614
     51 H22        12.7327    6.1177   -1.4597 H         1 <0>         0.0611
     52 H23        12.0600    5.0681    0.6838 H         1 <0>         0.0625
     53 H24        11.2781    6.6536    0.4757 H         1 <0>         0.0619
     54 H25         9.6549    4.9590    1.2769 H         1 <0>         0.0628
     55 H26        10.0088    3.9478   -0.1445 H         1 <0>         0.0639
@<TRIPOS>BOND
     1    1    6 ar
     2    1    2 ar
     3    1   30 1
     4    2    3 ar
     5    2   31 1
     6    3    4 ar
     7    3   15 1
     8    4    5 ar
     9    4    7 1
    10    5    6 ar
    11    6   32 1
    12    7    8 1
    13    7   33 1
    14    8    9 1
    15    8   34 1
    16    8   35 1
    17    9   14 ar
    18    9   10 ar
    19   10   11 ar
    20   10   36 1
    21   11   12 ar
    22   11   37 1
    23   12   13 ar
    24   13   14 ar
    25   13   38 1
    26   14   39 1
    27   15   16 2
    28   15   17 am
    29   17   18 1
    30   17   40 1
    31   18   23 ar
    32   18   19 ar
    33   19   20 ar
    34   19   41 1
    35   20   21 ar
    36   20   42 1
    37   21   22 ar
    38   21   24 1
    39   22   23 ar
    40   22   43 1
    41   23   44 1
    42   24   29 1
    43   24   25 1
    44   24   45 1
    45   25   26 1
    46   25   46 1
    47   25   47 1
    48   26   27 1
    49   26   48 1
    50   26   49 1
    51   27   28 1
    52   27   50 1
    53   27   51 1
    54   28   29 1
    55   28   52 1
    56   28   53 1
    57   29   54 1
    58   29   55 1
@<TRIPOS>MOLECULE
CHEMBL370493
   59    65     0     0     0
SMALL
USER_CHARGES

@<TRIPOS>ATOM
      1 C1         -0.0187    1.5258    0.0104 C.3       1 <0>        -0.1496
      2 C2          0.0021   -0.0041    0.0020 C.3       1 <0>         0.1184
      3 C3          0.7374   -0.5112   -1.2537 C.3       1 <0>         0.1159
      4 C4          1.9612   -1.2762   -0.6937 C.3       1 <0>        -0.1807
      5 C5          2.0947   -0.6778    0.7298 C.3       1 <0>         0.3116
      6 H1          2.6207    0.2763    0.6973 H         1 <0>         0.0897
      7 O1          0.7250   -0.4894    1.1457 O.3       1 <0>        -0.3546
      8 N1          2.7835   -1.6147    1.6208 N.pl3     1 <0>        -0.4929
      9 C6          2.2208   -2.7585    2.1527 C.ar      1 <0>         0.1544
     10 C7          0.9569   -3.3283    2.0287 C.ar      1 <0>        -0.1370
     11 C8          0.6625   -4.5026    2.6863 C.ar      1 <0>        -0.0788
     12 C9          1.6162   -5.1279    3.4761 C.ar      1 <0>        -0.1536
     13 C10         2.8726   -4.5803    3.6124 C.ar      1 <0>        -0.0466
     14 C11         3.1855   -3.3925    2.9520 C.ar      1 <0>        -0.1081
     15 C12         4.3976   -2.5609    2.8825 C.ar      1 <0>         0.0007
     16 C13         4.0953   -1.4847    2.0467 C.ar      1 <0>         0.1177
     17 C14         5.0716   -0.5133    1.7838 C.ar      1 <0>         0.1605
     18 C15         6.3446   -0.6343    2.3611 C.ar      1 <0>        -0.0629
     19 C16         7.1247    0.5282    1.8942 C.ar      1 <0>        -0.0950
     20 C17         8.4304    0.9582    2.1180 C.ar      1 <0>        -0.0605
     21 C18         8.8804    2.1175    1.5238 C.ar      1 <0>        -0.1437
     22 C19         8.0383    2.8556    0.7060 C.ar      1 <0>        -0.0810
     23 C20         6.7440    2.4416    0.4766 C.ar      1 <0>        -0.1378
     24 C21         6.2715    1.2731    1.0669 C.ar      1 <0>         0.1375
     25 N2          5.0473    0.6321    1.0143 N.pl3     1 <0>        -0.6091
     26 H2          4.2804    0.9434    0.5085 H         1 <0>         0.4140
     27 C22         6.6428   -1.7090    3.1900 C.ar      1 <0>        -0.0444
     28 C23         5.6801   -2.6749    3.4649 C.ar      1 <0>        -0.1353
     29 C24         6.2727   -3.6792    4.3611 C.2       1 <0>         0.5680
     30 O2          5.6936   -4.6631    4.7804 O.2       1 <0>        -0.5228
     31 N3          7.5447   -3.3564    4.6509 N.am      1 <0>        -0.7238
     32 C25         7.8845   -2.1157    3.9446 C.3       1 <0>         0.1443
     33 C26        -0.1616   -1.4535   -2.0567 C.3       1 <0>         0.0540
     34 O3          0.5781   -2.0010   -3.1500 O.3       1 <0>        -0.5735
     35 O4          1.1617    0.5875   -2.0628 O.3       1 <0>        -0.5421
     36 C27        -1.4294   -0.5437    0.0240 C.3       1 <0>        -0.1536
     37 H3          1.0039    1.9031    0.0027 H         1 <0>         0.0609
     38 H4         -0.5459    1.8868   -0.8726 H         1 <0>         0.0781
     39 H5         -0.5289    1.8773    0.9072 H         1 <0>         0.0656
     40 H6          1.7632   -2.3471   -0.6485 H         1 <0>         0.0998
     41 H7          2.8525   -1.0716   -1.2868 H         1 <0>         0.0955
     42 H8          0.2066   -2.8495    1.4169 H         1 <0>         0.1243
     43 H9         -0.3199   -4.9401    2.5862 H         1 <0>         0.1280
     44 H10         1.3724   -6.0479    3.9865 H         1 <0>         0.1279
     45 H11         3.6128   -5.0690    4.2285 H         1 <0>         0.1455
     46 H12         9.0878    0.3853    2.7551 H         1 <0>         0.1281
     47 H13         9.8925    2.4525    1.6962 H         1 <0>         0.1299
     48 H14         8.3998    3.7629    0.2451 H         1 <0>         0.1313
     49 H15         6.0962    3.0240   -0.1618 H         1 <0>         0.1252
     50 H16         8.1417   -3.8643    5.2223 H         1 <0>         0.4271
     51 H17         8.7073   -2.2839    3.2497 H         1 <0>         0.1011
     52 H18         8.1542   -1.3446    4.6662 H         1 <0>         0.1000
     53 H19        -0.5090   -2.2611   -1.4124 H         1 <0>         0.0644
     54 H20        -1.0189   -0.8996   -2.4392 H         1 <0>         0.0645
     55 H21         0.0695   -2.6091   -3.7037 H         1 <0>         0.3892
     56 H22         1.6305    0.3258   -2.8671 H         1 <0>         0.3884
     57 H23        -1.9622   -0.1965   -0.8613 H         1 <0>         0.0802
     58 H24        -1.4069   -1.6334    0.0305 H         1 <0>         0.0695
     59 H25        -1.9390   -0.1855    0.9185 H         1 <0>         0.0766
@<TRIPOS>BOND
     1    1    2 1
     2    1   37 1
     3    1   38 1
     4    1   39 1
     5    2    7 1
     6    2    3 1
     7    2   36 1
     8    3    4 1
     9    3   33 1
    10    3   35 1
    11    4    5 1
    12    4   40 1
    13    4   41 1
    14    5    6 1
    15    5    7 1
    16    5    8 1
    17    8   16 1
    18    8    9 1
    19    9   14 ar
    20    9   10 ar
    21   10   11 ar
    22   10   42 1
    23   11   12 ar
    24   11   43 1
    25   12   13 ar
    26   12   44 1
    27   13   14 ar
    28   13   45 1
    29   14   15 1
    30   15   28 ar
    31   15   16 ar
    32   16   17 ar
    33   17   25 1
    34   17   18 ar
    35   18   19 1
    36   18   27 ar
    37   19   24 ar
    38   19   20 ar
    39   20   21 ar
    40   20   46 1
    41   21   22 ar
    42   21   47 1
    43   22   23 ar
    44   22   48 1
    45   23   24 ar
    46   23   49 1
    47   24   25 1
    48   25   26 1
    49   27   32 1
    50   27   28 ar
    51   28   29 1
    52   29   30 2
    53   29   31 am
    54   31   32 1
    55   31   50 1
    56   32   51 1
    57   32   52 1
    58   33   34 1
    59   33   53 1
    60   33   54 1
    61   34   55 1
    62   35   56 1
    63   36   57 1
    64   36   58 1
    65   36   59 1
@<TRIPOS>MOLECULE
CHEMBL219555
   63    69     0     0     0
SMALL
USER_CHARGES

@<TRIPOS>ATOM
      1 C1         -2.4881    1.6437    0.1243 C.3       1 <0>        -0.1521
      2 C2         -2.6683    0.1243    0.1158 C.3       1 <0>        -0.1484
      3 C3         -1.2986   -0.5512    0.0241 C.3       1 <0>         0.1002
      4 N1         -1.4712   -2.0060    0.0159 N.pl3     1 <0>        -0.4948
      5 C4         -1.5085   -2.7865   -1.1134 C.ar      1 <0>         0.1351
      6 C5         -1.4036   -2.4466   -2.4614 C.ar      1 <0>        -0.1196
      7 C6         -1.4783   -3.4780   -3.3818 C.ar      1 <0>        -0.1040
      8 C7         -1.6507   -4.8012   -2.9967 C.ar      1 <0>         0.1209
      9 C8         -1.7588   -5.1624   -1.6574 C.ar      1 <0>        -0.0505
     10 C9         -1.6846   -4.1319   -0.7216 C.ar      1 <0>        -0.0826
     11 C10        -1.7549   -4.1373    0.7421 C.ar      1 <0>        -0.0981
     12 C11        -1.6142   -2.7928    1.1454 C.ar      1 <0>         0.1891
     13 C12        -1.6202   -2.4689    2.5003 C.ar      1 <0>        -0.1213
     14 C13        -1.8059   -3.4768    3.4410 C.ar      1 <0>         0.1290
     15 C14        -1.9269   -4.8210    3.0485 C.ar      1 <0>        -0.1979
     16 C15        -1.9090   -5.1370    1.6899 C.ar      1 <0>        -0.0105
     17 C16        -2.0663   -6.6342    1.5971 C.3       1 <0>         0.1377
     18 N2         -2.1838   -7.1186    2.9773 N.am      1 <0>        -0.7199
     19 C17        -2.0927   -6.0682    3.8105 C.2       1 <0>         0.5767
     20 O1         -2.1512   -6.1376    5.0232 O.2       1 <0>        -0.5352
     21 C18        -1.9184   -3.0715    4.8596 C.2       1 <0>        -0.2414
     22 C19        -1.8774   -3.7829    6.0055 C.2       1 <0>         0.1046
     23 N3         -2.0104   -2.9079    7.0281 N.pl3     1 <0>        -0.3869
     24 N4         -2.1438   -1.6171    6.4913 N.2       1 <0>        -0.2901
     25 C20        -2.0995   -1.7022    5.2021 C.2       1 <0>         0.0926
     26 C21        -2.2218   -0.6408    4.1392 C.3       1 <0>        -0.0319
     27 C22        -1.3949   -1.0426    2.9204 C.3       1 <0>        -0.0854
     28 C23        -2.0147   -3.2485    8.4529 C.3       1 <0>         0.1033
     29 N5         -1.7179   -5.7967   -3.9810 N.am      1 <0>        -0.6746
     30 C24        -1.1806   -7.0109   -3.7493 C.2       1 <0>         0.6998
     31 O2         -0.7134   -7.2706   -2.6570 O.2       1 <0>        -0.5417
     32 N6         -1.1612   -7.9371   -4.7281 N.am      1 <0>        -0.6337
     33 C25        -0.6039   -9.1964   -4.4878 C.2       1 <0>         0.0849
     34 C26        -0.4828  -10.2568   -5.3341 C.2       1 <0>        -0.2123
     35 C27         0.1119  -11.4158   -4.8693 C.2       1 <0>        -0.1333
     36 C28         0.5545  -11.4613   -3.5900 C.2       1 <0>        -0.2249
     37 S1          0.1410   -9.8301   -2.9942 S.3       1 <0>         0.1512
     38 H1         -3.4639    2.1249    0.1896 H         1 <0>         0.0636
     39 H2         -1.8822    1.9328    0.9830 H         1 <0>         0.0599
     40 H3         -1.9898    1.9556   -0.7936 H         1 <0>         0.0585
     41 H4         -3.1666   -0.1876    1.0337 H         1 <0>         0.0749
     42 H5         -3.2743   -0.1648   -0.7429 H         1 <0>         0.0720
     43 H6         -0.8003   -0.2393   -0.8938 H         1 <0>         0.0927
     44 H7         -0.6927   -0.2620    0.8828 H         1 <0>         0.0991
     45 H8         -1.2701   -1.4216   -2.7745 H         1 <0>         0.1371
     46 H9         -1.4004   -3.2461   -4.4337 H         1 <0>         0.1292
     47 H10        -1.8932   -6.1912   -1.3575 H         1 <0>         0.1505
     48 H11        -2.9663   -6.8825    1.0346 H         1 <0>         0.1004
     49 H12        -1.1912   -7.0742    1.1186 H         1 <0>         0.1051
     50 H13        -2.2964   -8.0442    3.2444 H         1 <0>         0.4268
     51 H14        -1.7603   -4.8532    6.0903 H         1 <0>         0.2199
     52 H15        -3.2674   -0.5351    3.8499 H         1 <0>         0.0874
     53 H16        -1.8553    0.3085    4.5298 H         1 <0>         0.0894
     54 H17        -0.3386   -0.9083    3.1535 H         1 <0>         0.0787
     55 H18        -1.6542   -0.3871    2.0890 H         1 <0>         0.0940
     56 H19        -0.9954   -3.2145    8.8377 H         1 <0>         0.0745
     57 H20        -2.6320   -2.5328    8.9958 H         1 <0>         0.0885
     58 H21        -2.4198   -4.2517    8.5855 H         1 <0>         0.0900
     59 H22        -2.1511   -5.6119   -4.8290 H         1 <0>         0.4097
     60 H23        -1.5339   -7.7299   -5.5993 H         1 <0>         0.4167
     61 H24        -0.8448  -10.1938   -6.3497 H         1 <0>         0.1314
     62 H25         0.2214  -12.2728   -5.5172 H         1 <0>         0.1326
     63 H26         1.0366  -12.2736   -3.0665 H         1 <0>         0.1839
@<TRIPOS>BOND
     1    1    2 1
     2    1   38 1
     3    1   39 1
     4    1   40 1
     5    2    3 1
     6    2   41 1
     7    2   42 1
     8    3    4 1
     9    3   43 1
    10    3   44 1
    11    4   12 1
    12    4    5 1
    13    5   10 ar
    14    5    6 ar
    15    6    7 ar
    16    6   45 1
    17    7    8 ar
    18    7   46 1
    19    8    9 ar
    20    8   29 1
    21    9   10 ar
    22    9   47 1
    23   10   11 1
    24   11   16 ar
    25   11   12 ar
    26   12   13 ar
    27   13   27 1
    28   13   14 ar
    29   14   15 ar
    30   14   21 1
    31   15   19 1
    32   15   16 ar
    33   16   17 1
    34   17   18 1
    35   17   48 1
    36   17   49 1
    37   18   19 am
    38   18   50 1
    39   19   20 2
    40   21   25 1
    41   21   22 2
    42   22   23 1
    43   22   51 1
    44   23   24 1
    45   23   28 1
    46   24   25 2
    47   25   26 1
    48   26   27 1
    49   26   52 1
    50   26   53 1
    51   27   54 1
    52   27   55 1
    53   28   56 1
    54   28   57 1
    55   28   58 1
    56   29   30 am
    57   29   59 1
    58   30   31 2
    59   30   32 am
    60   32   33 1
    61   32   60 1
    62   33   37 1
    63   33   34 2
    64   34   35 1
    65   34   61 1
    66   35   36 2
    67   35   62 1
    68   36   37 1
    69   36   63 1
@<TRIPOS>MOLECULE
CHEMBL259252
   57    61     0     0     0
SMALL
USER_CHARGES

@<TRIPOS>ATOM
      1 C1         -0.6761    0.0852    1.8934 C.3       1 <0>         0.0148
      2 O1         -0.2795   -0.5751    0.6898 O.3       1 <0>        -0.2866
      3 C2         -1.1442   -0.5201   -0.3582 C.ar      1 <0>         0.1343
      4 C3         -2.3250    0.1516   -0.2254 C.ar      1 <0>        -0.1359
      5 C4         -3.2168    0.2088   -1.3069 C.ar      1 <0>        -0.0903
      6 C5         -4.4478    0.8952   -1.2066 C.ar      1 <0>         0.2834
      7 C6         -5.2754    0.9085   -2.3154 C.ar      1 <0>        -0.2639
      8 C7         -4.8805    0.2579   -3.4776 C.ar      1 <0>         0.2259
      9 N1         -3.7350   -0.3771   -3.5600 N.ar      1 <0>        -0.4819
     10 C8         -2.8859   -0.4301   -2.5268 C.ar      1 <0>         0.1816
     11 C9         -1.6634   -1.1138   -2.6324 C.ar      1 <0>        -0.2357
     12 C10        -0.8113   -1.1489   -1.5664 C.ar      1 <0>         0.2160
     13 O2          0.3727   -1.8067   -1.6760 O.3       1 <0>        -0.2777
     14 C11         0.6562   -2.4277   -2.9314 C.3       1 <0>         0.0118
     15 O3         -4.8072    1.5212   -0.0587 O.3       1 <0>        -0.2125
     16 C12        -5.9574    2.2445   -0.0599 C.ar      1 <0>         0.0432
     17 C13        -7.1885    1.5838   -0.0096 C.ar      1 <0>        -0.1380
     18 C14        -8.3569    2.2825   -0.0095 C.ar      1 <0>        -0.0818
     19 C15        -8.3303    3.6833   -0.0598 C.ar      1 <0>        -0.0036
     20 C16        -7.0855    4.3571   -0.1104 C.ar      1 <0>        -0.0531
     21 C17        -5.8965    3.6087   -0.1045 C.ar      1 <0>        -0.0796
     22 C18        -7.0592    5.7619   -0.1600 C.ar      1 <0>        -0.0699
     23 C19        -8.2247    6.4682   -0.1593 C.ar      1 <0>        -0.1152
     24 C20        -9.4550    5.8253   -0.1097 C.ar      1 <0>        -0.0553
     25 C21        -9.5282    4.4409   -0.0607 C.ar      1 <0>        -0.1255
     26 C22       -10.8379    3.7649   -0.0091 C.2       1 <0>         0.5632
     27 O4        -10.8946    2.5603    0.1467 O.2       1 <0>        -0.5317
     28 N2        -11.9719    4.4823   -0.1347 N.am      1 <0>        -0.7099
     29 C23       -13.2729    3.8108   -0.0834 C.3       1 <0>         0.1186
     30 C24       -13.9771    3.7270   -1.4480 C.3       1 <0>        -0.1524
     31 C25       -15.2862    4.0375   -0.7032 C.3       1 <0>        -0.1402
     32 C26       -14.4225    4.7283    0.3652 C.3       1 <0>        -0.1480
     33 H1          0.1018   -0.0355    2.6474 H         1 <0>         0.1186
     34 H2         -0.8265    1.1461    1.6932 H         1 <0>         0.0667
     35 H3         -1.6061   -0.3512    2.2578 H         1 <0>         0.0673
     36 H4         -2.5717    0.6364    0.7077 H         1 <0>         0.1725
     37 H5         -6.2246    1.4224   -2.2774 H         1 <0>         0.1853
     38 H6         -5.5345    0.2748   -4.3369 H         1 <0>         0.2122
     39 H7         -1.3963   -1.6064   -3.5557 H         1 <0>         0.1712
     40 H8          0.6675   -1.6716   -3.7164 H         1 <0>         0.0692
     41 H9          1.6293   -2.9163   -2.8835 H         1 <0>         0.1214
     42 H10        -0.1121   -3.1688   -3.1518 H         1 <0>         0.0693
     43 H11        -7.2129    0.5048    0.0293 H         1 <0>         0.1376
     44 H12        -9.3011    1.7595    0.0290 H         1 <0>         0.1843
     45 H13        -4.9398    4.1087   -0.1390 H         1 <0>         0.1456
     46 H14        -6.1136    6.2822   -0.1984 H         1 <0>         0.1404
     47 H15        -8.1911    7.5470   -0.1977 H         1 <0>         0.1416
     48 H16       -10.3637    6.4090   -0.1100 H         1 <0>         0.1359
     49 H17       -11.9267    5.4432   -0.2589 H         1 <0>         0.4019
     50 H18       -13.2384    2.8612    0.4506 H         1 <0>         0.1195
     51 H19       -13.6747    4.5093   -2.1441 H         1 <0>         0.0845
     52 H20       -13.9526    2.7316   -1.8916 H         1 <0>         0.0738
     53 H21       -15.9435    4.7201   -1.2418 H         1 <0>         0.0774
     54 H22       -15.8029    3.1493   -0.3397 H         1 <0>         0.0871
     55 H23       -14.7577    4.5414    1.3854 H         1 <0>         0.0782
     56 H24       -14.2419    5.7844    0.1648 H         1 <0>         0.0867
     57 H25        -3.4977   -0.8188   -4.3903 H         1 <0>         0.4473
@<TRIPOS>BOND
     1    1    2 1
     2    1   33 1
     3    1   34 1
     4    1   35 1
     5    2    3 1
     6    3   12 ar
     7    3    4 ar
     8    4    5 ar
     9    4   36 1
    10    5   10 ar
    11    5    6 ar
    12    6    7 ar
    13    6   15 1
    14    7    8 ar
    15    7   37 1
    16    8    9 ar
    17    8   38 1
    18    9   10 ar
    19    9   57 1
    20   10   11 ar
    21   11   12 ar
    22   11   39 1
    23   12   13 1
    24   13   14 1
    25   14   40 1
    26   14   41 1
    27   14   42 1
    28   15   16 1
    29   16   21 ar
    30   16   17 ar
    31   17   18 ar
    32   17   43 1
    33   18   19 ar
    34   18   44 1
    35   19   25 ar
    36   19   20 ar
    37   20   21 ar
    38   20   22 ar
    39   21   45 1
    40   22   23 ar
    41   22   46 1
    42   23   24 ar
    43   23   47 1
    44   24   25 ar
    45   24   48 1
    46   25   26 1
    47   26   27 2
    48   26   28 am
    49   28   29 1
    50   28   49 1
    51   29   32 1
    52   29   30 1
    53   29   50 1
    54   30   31 1
    55   30   51 1
    56   30   52 1
    57   31   32 1
    58   31   53 1
    59   31   54 1
    60   32   55 1
    61   32   56 1
@<TRIPOS>MOLECULE
CHEMBL566010
   60    64     0     0     0
SMALL
USER_CHARGES

@<TRIPOS>ATOM
      1 C1          1.0490    1.2202    3.5130 C.ar      1 <0>        -0.1338
      2 C2          1.5199   -0.0011    3.9588 C.ar      1 <0>        -0.0997
      3 C3          2.5283   -0.6471    3.2708 C.ar      1 <0>        -0.1211
      4 C4          3.0691   -0.0689    2.1298 C.ar      1 <0>         0.1444
      5 C5          2.5937    1.1575    1.6844 C.ar      1 <0>        -0.1460
      6 C6          1.5854    1.7986    2.3772 C.ar      1 <0>        -0.1008
      7 N1          4.0911   -0.7205    1.4308 N.am      1 <0>        -0.6756
      8 C7          4.1207   -2.0670    1.3803 C.2       1 <0>         0.5107
      9 O1          3.2120   -2.7120    1.8592 O.2       1 <0>        -0.4706
     10 C8          5.2828   -2.7712    0.7287 C.3       1 <0>        -0.1632
     11 C9          5.0737   -4.2617    0.8047 C.2       1 <0>         0.5140
     12 O2          4.0787   -4.7082    1.3357 O.2       1 <0>        -0.4631
     13 N2          5.9921   -5.0986    0.2826 N.am      1 <0>        -0.6757
     14 C10         5.7508   -6.4783    0.2616 C.ar      1 <0>         0.1929
     15 C11         4.4568   -6.9546    0.0972 C.ar      1 <0>        -0.1185
     16 C12         4.2183   -8.3147    0.0770 C.ar      1 <0>        -0.0643
     17 C13         5.2709   -9.2063    0.2204 C.ar      1 <0>         0.0207
     18 C14         6.5662   -8.7315    0.3851 C.ar      1 <0>         0.1215
     19 C15         6.8061   -7.3699    0.3996 C.ar      1 <0>        -0.1731
     20 F1          7.5916   -9.5999    0.5253 F         1 <0>        -0.1215
     21 O3          5.0351  -10.5455    0.2004 O.3       1 <0>        -0.2354
     22 C16         4.9179  -11.1897    1.3893 C.ar      1 <0>         0.2067
     23 C17         4.9243  -10.4869    2.5900 C.ar      1 <0>        -0.2255
     24 C18         4.8011  -11.2007    3.7730 C.ar      1 <0>         0.1593
     25 N3          4.6799  -12.5019    3.7974 N.ar      1 <0>        -0.4671
     26 C19         4.6651  -13.2558    2.6733 C.ar      1 <0>         0.1400
     27 C20         4.7822  -12.5683    1.4453 C.ar      1 <0>        -0.2023
     28 S1          4.7133  -13.8629    0.2342 S.3       1 <0>         0.1279
     29 C21         4.5284  -15.2458    1.3471 C.2       1 <0>        -0.1669
     30 C22         4.5417  -14.6528    2.5714 C.2       1 <0>        -0.0592
     31 C23         4.4051  -16.6756    1.0213 C.2       1 <0>         0.6170
     32 O4          4.2845  -17.4942    1.9127 O.2       1 <0>        -0.5130
     33 N4          4.4258  -17.0780   -0.2648 N.am      1 <0>        -0.6113
     34 C24         4.5715  -16.2000   -1.4351 C.3       1 <0>         0.0837
     35 C25         4.5139  -17.0961   -2.6902 C.3       1 <0>        -0.1275
     36 C26         3.7723  -18.3603   -2.1808 C.3       1 <0>        -0.1344
     37 C27         4.3124  -18.4720   -0.7309 C.3       1 <0>         0.1063
     38 H1          0.2576    1.7214    4.0505 H         1 <0>         0.1242
     39 H2          1.0989   -0.4502    4.8462 H         1 <0>         0.1264
     40 H3          2.8961   -1.6006    3.6199 H         1 <0>         0.1340
     41 H4          3.0125    1.6099    0.7977 H         1 <0>         0.1253
     42 H5          1.2153    2.7524    2.0313 H         1 <0>         0.1269
     43 H6          4.7783   -0.2031    0.9825 H         1 <0>         0.4107
     44 H7          5.3528   -2.4670   -0.3157 H         1 <0>         0.1325
     45 H8          6.2047   -2.5068    1.2467 H         1 <0>         0.1324
     46 H9          6.8202   -4.7455   -0.0787 H         1 <0>         0.4162
     47 H10         3.6365   -6.2610   -0.0146 H         1 <0>         0.1537
     48 H11         3.2115   -8.6843   -0.0502 H         1 <0>         0.1499
     49 H12         7.8133   -7.0000    0.5231 H         1 <0>         0.1507
     50 H13         5.0233   -9.4115    2.6007 H         1 <0>         0.1512
     51 H14         4.8057  -10.6613    4.7086 H         1 <0>         0.1704
     52 H15         4.4430  -15.2532    3.4637 H         1 <0>         0.1615
     53 H16         3.7572  -15.4759   -1.4589 H         1 <0>         0.0784
     54 H17         5.5298  -15.6822   -1.3930 H         1 <0>         0.0785
     55 H18         3.9474  -16.6107   -3.4849 H         1 <0>         0.0883
     56 H19         5.5182  -17.3489   -3.0300 H         1 <0>         0.0821
     57 H20         2.6928  -18.2097   -2.1887 H         1 <0>         0.0799
     58 H21         4.0472  -19.2372   -2.7670 H         1 <0>         0.0903
     59 H22         5.2895  -18.9551   -0.7237 H         1 <0>         0.0757
     60 H23         3.6104  -19.0249   -0.1066 H         1 <0>         0.0851
@<TRIPOS>BOND
     1    1    6 ar
     2    1    2 ar
     3    1   38 1
     4    2    3 ar
     5    2   39 1
     6    3    4 ar
     7    3   40 1
     8    4    5 ar
     9    4    7 1
    10    5    6 ar
    11    5   41 1
    12    6   42 1
    13    7    8 am
    14    7   43 1
    15    8    9 2
    16    8   10 1
    17   10   11 1
    18   10   44 1
    19   10   45 1
    20   11   12 2
    21   11   13 am
    22   13   14 1
    23   13   46 1
    24   14   19 ar
    25   14   15 ar
    26   15   16 ar
    27   15   47 1
    28   16   17 ar
    29   16   48 1
    30   17   18 ar
    31   17   21 1
    32   18   19 ar
    33   18   20 1
    34   19   49 1
    35   21   22 1
    36   22   27 ar
    37   22   23 ar
    38   23   24 ar
    39   23   50 1
    40   24   25 ar
    41   24   51 1
    42   25   26 ar
    43   26   30 1
    44   26   27 ar
    45   27   28 1
    46   28   29 1
    47   29   30 2
    48   29   31 1
    49   30   52 1
    50   31   32 2
    51   31   33 am
    52   33   37 1
    53   33   34 1
    54   34   35 1
    55   34   53 1
    56   34   54 1
    57   35   36 1
    58   35   55 1
    59   35   56 1
    60   36   37 1
    61   36   57 1
    62   36   58 1
    63   37   59 1
    64   37   60 1
@<TRIPOS>MOLECULE
CHEMBL244100
   54    57     0     0     0
SMALL
USER_CHARGES

@<TRIPOS>ATOM
      1 C1          5.4424   -8.3095    1.1295 C.3       1 <0>         0.0464
      2 O1          4.6441   -7.1306    1.0067 O.3       1 <0>        -0.3323
      3 C2          4.5311   -6.5928   -0.2262 C.2       1 <0>         0.6419
      4 O2          5.0963   -7.1124   -1.1713 O.2       1 <0>        -0.6171
      5 N1          3.7987   -5.4896   -0.4096 N.2       1 <0>        -0.6389
      6 C3          3.7676   -4.9041   -1.6002 C.2       1 <0>         0.6701
      7 N2          4.3337   -5.3957   -2.7351 N.pl3     1 <0>        -0.6086
      8 H1          4.8250   -6.2286   -2.8112 H         1 <0>         0.4536
      9 C4          4.0850   -4.4966   -3.7691 C.ar      1 <0>         0.0706
     10 C5          4.4196   -4.4895   -5.1110 C.ar      1 <0>        -0.0587
     11 C6          4.0184   -3.4236   -5.9196 C.ar      1 <0>        -0.1422
     12 C7          3.2809   -2.3688   -5.3703 C.ar      1 <0>        -0.0470
     13 C8          2.9502   -2.3790   -4.0347 C.ar      1 <0>        -0.1038
     14 C9          3.3473   -3.4387   -3.2262 C.ar      1 <0>         0.1156
     15 N3          3.1592   -3.7193   -1.8805 N.pl3     1 <0>        -0.5843
     16 C10         4.3725   -3.4095   -7.3520 C.2       1 <0>         0.4462
     17 O3          4.4621   -2.3519   -7.9460 O.2       1 <0>        -0.4402
     18 C11         4.6178   -4.6780   -8.0635 C.ar      1 <0>        -0.1789
     19 C12         4.1411   -5.8818   -7.5348 C.ar      1 <0>        -0.0585
     20 C13         4.3715   -7.0634   -8.2017 C.ar      1 <0>        -0.1317
     21 C14         5.0779   -7.0613   -9.4009 C.ar      1 <0>         0.1955
     22 C15         5.5538   -5.8652   -9.9301 C.ar      1 <0>        -0.1542
     23 C16         5.3226   -4.6792   -9.2715 C.ar      1 <0>        -0.0349
     24 N4          5.3096   -8.2599  -10.0733 N.am      1 <0>        -0.6765
     25 C17         4.3917   -9.2458  -10.0291 C.2       1 <0>         0.7083
     26 O4          3.3226   -9.0569   -9.4817 O.2       1 <0>        -0.5450
     27 N5          4.6588  -10.4410  -10.5917 N.am      1 <0>        -0.6732
     28 C18         3.6718  -11.4341  -10.6284 C.ar      1 <0>         0.1311
     29 C19         2.6751  -11.4603   -9.6626 C.ar      1 <0>        -0.0573
     30 C20         1.7025  -12.4406   -9.7015 C.ar      1 <0>        -0.1730
     31 C21         1.7204  -13.3963  -10.7007 C.ar      1 <0>        -0.0570
     32 C22         2.7111  -13.3745  -11.6650 C.ar      1 <0>        -0.1308
     33 C23         3.6847  -12.3926  -11.6356 C.ar      1 <0>         0.1035
     34 F1          4.6498  -12.3680  -12.5807 F         1 <0>        -0.1271
     35 C24         0.6206  -12.4688   -8.6529 C.3       1 <0>         0.5126
     36 F2         -0.4667  -11.7011   -9.0839 F         1 <0>        -0.1719
     37 F3          0.2063  -13.7889   -8.4456 F         1 <0>        -0.1742
     38 F4          1.1176  -11.9426   -7.4557 F         1 <0>        -0.1730
     39 H2          5.0249   -9.0979    0.5032 H         1 <0>         0.0597
     40 H3          6.4617   -8.0930    0.8099 H         1 <0>         0.0591
     41 H4          5.4494   -8.6369    2.1692 H         1 <0>         0.1051
     42 H5          2.6782   -3.1643   -1.2468 H         1 <0>         0.4506
     43 H6          4.9891   -5.3048   -5.5319 H         1 <0>         0.1485
     44 H7          2.9710   -1.5448   -5.9959 H         1 <0>         0.1504
     45 H8          2.3812   -1.5633   -3.6138 H         1 <0>         0.1468
     46 H9          3.5932   -5.8842   -6.6041 H         1 <0>         0.1398
     47 H10         4.0040   -7.9934   -7.7938 H         1 <0>         0.1437
     48 H11         6.1015   -5.8674  -10.8609 H         1 <0>         0.1359
     49 H12         5.6887   -3.7510   -9.6848 H         1 <0>         0.1413
     50 H13         6.1316   -8.3846  -10.5730 H         1 <0>         0.4143
     51 H14         5.5347  -10.6135  -10.9712 H         1 <0>         0.4170
     52 H15         2.6602  -10.7149   -8.8812 H         1 <0>         0.1763
     53 H16         0.9590  -14.1617  -10.7278 H         1 <0>         0.1504
     54 H17         2.7223  -14.1223  -12.4442 H         1 <0>         0.1558
@<TRIPOS>BOND
     1    1    2 1
     2    1   39 1
     3    1   40 1
     4    1   41 1
     5    2    3 1
     6    3    4 2
     7    3    5 1
     8    5    6 2
     9    6   15 1
    10    6    7 1
    11    7    9 1
    12    7    8 1
    13    9   10 ar
    14    9   14 ar
    15   10   11 ar
    16   10   43 1
    17   11   12 ar
    18   11   16 1
    19   12   13 ar
    20   12   44 1
    21   13   14 ar
    22   13   45 1
    23   14   15 1
    24   15   42 1
    25   16   17 2
    26   16   18 1
    27   18   23 ar
    28   18   19 ar
    29   19   20 ar
    30   19   46 1
    31   20   21 ar
    32   20   47 1
    33   21   22 ar
    34   21   24 1
    35   22   23 ar
    36   22   48 1
    37   23   49 1
    38   24   25 am
    39   24   50 1
    40   25   26 2
    41   25   27 am
    42   27   28 1
    43   27   51 1
    44   28   33 ar
    45   28   29 ar
    46   29   30 ar
    47   29   52 1
    48   30   31 ar
    49   30   35 1
    50   31   32 ar
    51   31   53 1
    52   32   33 ar
    53   32   54 1
    54   33   34 1
    55   35   36 1
    56   35   37 1
    57   35   38 1
@<TRIPOS>MOLECULE
CHEMBL244100__1
   54    57     0     0     0
SMALL
USER_CHARGES

@<TRIPOS>ATOM
      1 C1         -2.1964    1.9874   -3.5742 C.3       1 <0>         0.0462
      2 O1         -1.6473    1.3875   -4.7492 O.3       1 <0>        -0.3322
      3 C2         -0.9377    0.2514   -4.5828 C.2       1 <0>         0.6419
      4 O2         -0.7899   -0.2164   -3.4683 O.2       1 <0>        -0.6173
      5 N1         -0.3971   -0.3602   -5.6415 N.2       1 <0>        -0.6384
      6 C3          0.3827   -1.4200   -5.4689 C.2       1 <0>         0.6708
      7 N2          1.0847   -2.0499   -6.4492 N.pl3     1 <0>        -0.5844
      8 H1          1.1004   -1.8019   -7.3868 H         1 <0>         0.4501
      9 C4          1.7774   -3.1119   -5.8733 C.ar      1 <0>         0.0739
     10 C5          2.6310   -4.0695   -6.3901 C.ar      1 <0>        -0.0561
     11 C6          3.1876   -5.0311   -5.5437 C.ar      1 <0>        -0.1448
     12 C7          2.8802   -5.0223   -4.1785 C.ar      1 <0>        -0.0443
     13 C8          2.0302   -4.0684   -3.6679 C.ar      1 <0>        -0.1070
     14 C9          1.4742   -3.1088   -4.5073 C.ar      1 <0>         0.1130
     15 N3          0.6117   -2.0456   -4.2820 N.pl3     1 <0>        -0.6094
     16 C10         4.0987   -6.0559   -6.0887 C.2       1 <0>         0.4463
     17 O3          4.2145   -7.1279   -5.5259 O.2       1 <0>        -0.4402
     18 C11         4.8689   -5.7803   -7.3160 C.ar      1 <0>        -0.1783
     19 C12         5.0625   -4.4619   -7.7409 C.ar      1 <0>        -0.0590
     20 C13         5.7821   -4.2085   -8.8862 C.ar      1 <0>        -0.1318
     21 C14         6.3170   -5.2623   -9.6215 C.ar      1 <0>         0.1953
     22 C15         6.1264   -6.5756   -9.2017 C.ar      1 <0>        -0.1541
     23 C16         5.4124   -6.8363   -8.0545 C.ar      1 <0>        -0.0350
     24 N4          7.0448   -5.0018  -10.7812 N.am      1 <0>        -0.6766
     25 C17         7.8026   -3.8905  -10.8659 C.2       1 <0>         0.7084
     26 O4          7.9254   -3.1633   -9.8992 O.2       1 <0>        -0.5451
     27 N5          8.4242   -3.5853  -12.0221 N.am      1 <0>        -0.6732
     28 C18         9.2859   -2.4827  -12.0841 C.ar      1 <0>         0.1309
     29 C19         9.1026   -1.4075  -11.2256 C.ar      1 <0>        -0.0571
     30 C20         9.9542   -0.3216  -11.2887 C.ar      1 <0>        -0.1730
     31 C21        10.9888   -0.3036  -12.2059 C.ar      1 <0>        -0.0569
     32 C22        11.1755   -1.3723  -13.0633 C.ar      1 <0>        -0.1309
     33 C23        10.3303   -2.4652  -13.0018 C.ar      1 <0>         0.1036
     34 F1         10.5157   -3.5117  -13.8359 F         1 <0>        -0.1271
     35 C24         9.7550    0.8457  -10.3565 C.3       1 <0>         0.5127
     36 F2         10.4873    0.6357   -9.1831 F         1 <0>        -0.1718
     37 F3         10.1960    2.0191  -10.9777 F         1 <0>        -0.1742
     38 F4          8.3968    0.9659  -10.0434 F         1 <0>        -0.1731
     39 H2         -2.8764    1.2854   -3.0917 H         1 <0>         0.0596
     40 H3         -1.3905    2.2436   -2.8865 H         1 <0>         0.0595
     41 H4         -2.7411    2.8909   -3.8482 H         1 <0>         0.1053
     42 H5          0.2342   -1.7927   -3.4250 H         1 <0>         0.4539
     43 H6          2.8660   -4.0739   -7.4442 H         1 <0>         0.1504
     44 H7          3.3107   -5.7660   -3.5244 H         1 <0>         0.1496
     45 H8          1.7947   -4.0645   -2.6139 H         1 <0>         0.1449
     46 H9          4.6474   -3.6438   -7.1710 H         1 <0>         0.1404
     47 H10         5.9316   -3.1908   -9.2151 H         1 <0>         0.1439
     48 H11         6.5429   -7.3908   -9.7747 H         1 <0>         0.1357
     49 H12         5.2685   -7.8554   -7.7271 H         1 <0>         0.1411
     50 H13         7.0060   -5.6204  -11.5273 H         1 <0>         0.4143
     51 H14         8.2749   -4.1291  -12.8113 H         1 <0>         0.4171
     52 H15         8.2946   -1.4197  -10.5091 H         1 <0>         0.1765
     53 H16        11.6523    0.5472  -12.2530 H         1 <0>         0.1504
     54 H17        11.9845   -1.3552  -13.7786 H         1 <0>         0.1557
@<TRIPOS>BOND
     1    1    2 1
     2    1   39 1
     3    1   40 1
     4    1   41 1
     5    2    3 1
     6    3    4 2
     7    3    5 1
     8    5    6 2
     9    6   15 1
    10    6    7 1
    11    7    9 1
    12    7    8 1
    13    9   10 ar
    14    9   14 ar
    15   10   11 ar
    16   10   43 1
    17   11   12 ar
    18   11   16 1
    19   12   13 ar
    20   12   44 1
    21   13   14 ar
    22   13   45 1
    23   14   15 1
    24   15   42 1
    25   16   17 2
    26   16   18 1
    27   18   23 ar
    28   18   19 ar
    29   19   20 ar
    30   19   46 1
    31   20   21 ar
    32   20   47 1
    33   21   22 ar
    34   21   24 1
    35   22   23 ar
    36   22   48 1
    37   23   49 1
    38   24   25 am
    39   24   50 1
    40   25   26 2
    41   25   27 am
    42   27   28 1
    43   27   51 1
    44   28   33 ar
    45   28   29 ar
    46   29   30 ar
    47   29   52 1
    48   30   31 ar
    49   30   35 1
    50   31   32 ar
    51   31   53 1
    52   32   33 ar
    53   32   54 1
    54   33   34 1
    55   35   36 1
    56   35   37 1
    57   35   38 1
@<TRIPOS>MOLECULE
CHEMBL243912
   53    56     0     0     0
SMALL
USER_CHARGES

@<TRIPOS>ATOM
      1 C1         -3.2318   -7.4926   12.8428 C.3       1 <0>         0.0466
      2 O1         -3.2199   -6.1489   12.3565 O.3       1 <0>        -0.3333
      3 C2         -2.1461   -5.7689   11.6320 C.2       1 <0>         0.6405
      4 O2         -1.2443   -6.5591   11.4195 O.2       1 <0>        -0.6184
      5 N1         -2.0729   -4.5254   11.1479 N.2       1 <0>        -0.6420
      6 C3         -0.9740   -4.1202   10.5224 C.2       1 <0>         0.6693
      7 N2          0.0954   -4.9049   10.2198 N.pl3     1 <0>        -0.6105
      8 H1          0.1831   -5.8491   10.4240 H         1 <0>         0.4519
      9 C4          1.0419   -4.1207    9.5671 C.ar      1 <0>         0.1021
     10 C5          2.2965   -4.3943    9.0437 C.ar      1 <0>        -0.1063
     11 C6          3.0257   -3.3829    8.4348 C.ar      1 <0>        -0.0841
     12 C7          2.5001   -2.0978    8.3495 C.ar      1 <0>        -0.0833
     13 C8          1.2521   -1.8222    8.8698 C.ar      1 <0>        -0.0756
     14 C9          0.5173   -2.8291    9.4796 C.ar      1 <0>         0.0789
     15 N3         -0.7415   -2.8565   10.0775 N.pl3     1 <0>        -0.5845
     16 S1          4.6205   -3.7267    7.7692 S.3       1 <0>         0.0194
     17 C10         4.7986   -5.4685    7.9673 C.ar      1 <0>        -0.1662
     18 C11         4.2905   -6.3329    7.0054 C.ar      1 <0>        -0.0410
     19 C12         4.4302   -7.6973    7.1610 C.ar      1 <0>        -0.1526
     20 C13         5.0780   -8.2061    8.2790 C.ar      1 <0>         0.1963
     21 C14         5.5860   -7.3426    9.2406 C.ar      1 <0>        -0.1279
     22 C15         5.4522   -5.9778    9.0827 C.ar      1 <0>        -0.0399
     23 N4          5.2188   -9.5917    8.4371 N.am      1 <0>        -0.6794
     24 C16         5.1684  -10.1381    9.6681 C.2       1 <0>         0.7086
     25 O3          4.9027   -9.4443   10.6308 O.2       1 <0>        -0.5453
     26 N5          5.4124  -11.4534    9.8321 N.am      1 <0>        -0.6726
     27 C17         5.2776  -12.0382   11.0977 C.ar      1 <0>         0.1317
     28 C18         5.4192  -11.2634   12.2406 C.ar      1 <0>        -0.0602
     29 C19         5.2853  -11.8427   13.4876 C.ar      1 <0>        -0.1725
     30 C20         5.0109  -13.1934   13.5992 C.ar      1 <0>        -0.0578
     31 C21         4.8694  -13.9696   12.4636 C.ar      1 <0>        -0.1303
     32 C22         4.9960  -13.3950   11.2120 C.ar      1 <0>         0.1023
     33 F1          4.8519  -14.1519   10.1022 F         1 <0>        -0.1274
     34 C23         5.4390  -11.0014   14.7284 C.3       1 <0>         0.5126
     35 F2          4.1940  -10.4794   15.0951 F         1 <0>        -0.1717
     36 F3          5.9380  -11.7920   15.7691 F         1 <0>        -0.1742
     37 F4          6.3279   -9.9517   14.4728 F         1 <0>        -0.1730
     38 H2         -2.3699   -7.6522   13.4907 H         1 <0>         0.0590
     39 H3         -4.1478   -7.6666   13.4073 H         1 <0>         0.1046
     40 H4         -3.1867   -8.1839   12.0013 H         1 <0>         0.0584
     41 H5         -1.3465   -2.1032   10.1634 H         1 <0>         0.4487
     42 H6          2.7052   -5.3918    9.1100 H         1 <0>         0.1343
     43 H7          3.0707   -1.3132    7.8749 H         1 <0>         0.1458
     44 H8          0.8470   -0.8234    8.8018 H         1 <0>         0.1444
     45 H9          3.7860   -5.9373    6.1362 H         1 <0>         0.1400
     46 H10         4.0353   -8.3693    6.4134 H         1 <0>         0.1353
     47 H11         6.0894   -7.7387   10.1101 H         1 <0>         0.1431
     48 H12         5.8514   -5.3061    9.8282 H         1 <0>         0.1402
     49 H13         5.3526  -10.1573    7.6605 H         1 <0>         0.4141
     50 H14         5.6814  -11.9950    9.0737 H         1 <0>         0.4170
     51 H15         5.6342  -10.2085   12.1552 H         1 <0>         0.1787
     52 H16         4.9071  -13.6432   14.5755 H         1 <0>         0.1504
     53 H17         4.6554  -15.0243   12.5541 H         1 <0>         0.1558
@<TRIPOS>BOND
     1    1    2 1
     2    1   38 1
     3    1   39 1
     4    1   40 1
     5    2    3 1
     6    3    4 2
     7    3    5 1
     8    5    6 2
     9    6   15 1
    10    6    7 1
    11    7    9 1
    12    7    8 1
    13    9   10 ar
    14    9   14 ar
    15   10   11 ar
    16   10   42 1
    17   11   12 ar
    18   11   16 1
    19   12   13 ar
    20   12   43 1
    21   13   14 ar
    22   13   44 1
    23   14   15 1
    24   15   41 1
    25   16   17 1
    26   17   22 ar
    27   17   18 ar
    28   18   19 ar
    29   18   45 1
    30   19   20 ar
    31   19   46 1
    32   20   21 ar
    33   20   23 1
    34   21   22 ar
    35   21   47 1
    36   22   48 1
    37   23   24 am
    38   23   49 1
    39   24   25 2
    40   24   26 am
    41   26   27 1
    42   26   50 1
    43   27   32 ar
    44   27   28 ar
    45   28   29 ar
    46   28   51 1
    47   29   30 ar
    48   29   34 1
    49   30   31 ar
    50   30   52 1
    51   31   32 ar
    52   31   53 1
    53   32   33 1
    54   34   35 1
    55   34   36 1
    56   34   37 1
@<TRIPOS>MOLECULE
CHEMBL243912__1
   53    56     0     0     0
SMALL
USER_CHARGES

@<TRIPOS>ATOM
      1 C1         12.4200   -6.6252   -0.3340 C.3       1 <0>         0.0467
      2 O1         12.0862   -6.3265    1.0230 O.3       1 <0>        -0.3335
      3 C2         10.7987   -6.4997    1.3898 C.2       1 <0>         0.6415
      4 O2          9.9819   -6.8942    0.5773 O.2       1 <0>        -0.6197
      5 N1         10.4204   -6.2383    2.6446 N.2       1 <0>        -0.6426
      6 C3          9.1378   -6.3109    2.9801 C.2       1 <0>         0.6696
      7 N2          8.6190   -5.9673    4.1899 N.pl3     1 <0>        -0.5863
      8 H1          9.1210   -5.6304    4.9484 H         1 <0>         0.4479
      9 C4          7.2444   -6.1820    4.1527 C.ar      1 <0>         0.1055
     10 C5          6.2352   -6.0059    5.0873 C.ar      1 <0>        -0.1036
     11 C6          4.9242   -6.3142    4.7534 C.ar      1 <0>        -0.0863
     12 C7          4.6225   -6.7987    3.4848 C.ar      1 <0>        -0.0804
     13 C8          5.6246   -6.9755    2.5528 C.ar      1 <0>        -0.0785
     14 C9          6.9378   -6.6687    2.8799 C.ar      1 <0>         0.0763
     15 N3          8.1337   -6.7350    2.1671 N.pl3     1 <0>        -0.6085
     16 S1          3.6393   -6.0922    5.9385 S.3       1 <0>         0.0192
     17 C10         4.4494   -5.3372    7.3091 C.ar      1 <0>        -0.1657
     18 C11         4.6194   -3.9586    7.3425 C.ar      1 <0>        -0.0410
     19 C12         5.2542   -3.3675    8.4164 C.ar      1 <0>        -0.1527
     20 C13         5.7232   -4.1506    9.4630 C.ar      1 <0>         0.1961
     21 C14         5.5535   -5.5284    9.4299 C.ar      1 <0>        -0.1280
     22 C15         4.9134   -6.1197    8.3594 C.ar      1 <0>        -0.0398
     23 N4          6.3684   -3.5501   10.5527 N.am      1 <0>        -0.6795
     24 C16         7.3823   -4.1878   11.1706 C.2       1 <0>         0.7090
     25 O3          7.8027   -5.2376   10.7234 O.2       1 <0>        -0.5463
     26 N5          7.9304   -3.6621   12.2840 N.am      1 <0>        -0.6726
     27 C17         9.0383   -4.2797   12.8781 C.ar      1 <0>         0.1313
     28 C18         9.2588   -5.6378   12.6950 C.ar      1 <0>        -0.0603
     29 C19        10.3526   -6.2443   13.2817 C.ar      1 <0>        -0.1725
     30 C20        11.2281   -5.5008   14.0516 C.ar      1 <0>        -0.0576
     31 C21        11.0125   -4.1477   14.2373 C.ar      1 <0>        -0.1302
     32 C22         9.9229   -3.5327   13.6479 C.ar      1 <0>         0.1024
     33 F1          9.7155   -2.2094   13.8243 F         1 <0>        -0.1273
     34 C23        10.5918   -7.7189   13.0827 C.3       1 <0>         0.5126
     35 F2         11.3865   -7.9135   11.9480 F         1 <0>        -0.1717
     36 F3         11.2447   -8.2409   14.2045 F         1 <0>        -0.1742
     37 F4          9.3661   -8.3711   12.9110 F         1 <0>        -0.1730
     38 H2         11.8376   -5.9886   -1.0000 H         1 <0>         0.0587
     39 H3         13.4827   -6.4437   -0.4952 H         1 <0>         0.1044
     40 H4         12.1945   -7.6711   -0.5419 H         1 <0>         0.0592
     41 H5          8.2330   -7.0342    1.2498 H         1 <0>         0.4525
     42 H6          6.4691   -5.6301    6.0724 H         1 <0>         0.1362
     43 H7          3.6008   -7.0376    3.2287 H         1 <0>         0.1452
     44 H8          5.3868   -7.3518    1.5688 H         1 <0>         0.1426
     45 H9          4.2553   -3.3496    6.5283 H         1 <0>         0.1400
     46 H10         5.3864   -2.2960    8.4425 H         1 <0>         0.1353
     47 H11         5.9187   -6.1371   10.2439 H         1 <0>         0.1430
     48 H12         4.7772   -7.1909    8.3360 H         1 <0>         0.1402
     49 H13         6.0853   -2.6755   10.8623 H         1 <0>         0.4142
     50 H14         7.5575   -2.8560   12.6740 H         1 <0>         0.4171
     51 H15         8.5755   -6.2201   12.0945 H         1 <0>         0.1789
     52 H16        12.0820   -5.9781   14.5091 H         1 <0>         0.1504
     53 H17        11.6980   -3.5697   14.8395 H         1 <0>         0.1558
@<TRIPOS>BOND
     1    1    2 1
     2    1   38 1
     3    1   39 1
     4    1   40 1
     5    2    3 1
     6    3    4 2
     7    3    5 1
     8    5    6 2
     9    6   15 1
    10    6    7 1
    11    7    9 1
    12    7    8 1
    13    9   10 ar
    14    9   14 ar
    15   10   11 ar
    16   10   42 1
    17   11   12 ar
    18   11   16 1
    19   12   13 ar
    20   12   43 1
    21   13   14 ar
    22   13   44 1
    23   14   15 1
    24   15   41 1
    25   16   17 1
    26   17   22 ar
    27   17   18 ar
    28   18   19 ar
    29   18   45 1
    30   19   20 ar
    31   19   46 1
    32   20   21 ar
    33   20   23 1
    34   21   22 ar
    35   21   47 1
    36   22   48 1
    37   23   24 am
    38   23   49 1
    39   24   25 2
    40   24   26 am
    41   26   27 1
    42   26   50 1
    43   27   32 ar
    44   27   28 ar
    45   28   29 ar
    46   28   51 1
    47   29   30 ar
    48   29   34 1
    49   30   31 ar
    50   30   52 1
    51   31   32 ar
    52   31   53 1
    53   32   33 1
    54   34   35 1
    55   34   36 1
    56   34   37 1
@<TRIPOS>MOLECULE
CHEMBL602703
   60    64     0     0     0
SMALL
USER_CHARGES

@<TRIPOS>ATOM
      1 C1          1.4876   -1.7315    2.6349 C.3       1 <0>         0.0699
      2 N1          0.4400   -2.1422    1.6968 N.pl3     1 <0>        -0.4616
      3 C2          0.6025   -2.9452    0.6035 C.2       1 <0>        -0.0138
      4 C3         -0.6218   -3.0663    0.0216 C.2       1 <0>         0.0620
      5 N2         -1.4986   -2.3483    0.7548 N.2       1 <0>        -0.4688
      6 C4         -0.8716   -1.7999    1.7570 C.2       1 <0>         0.1961
      7 C5         -0.9351   -3.8441   -1.1959 C.2       1 <0>        -0.0139
      8 C6         -2.1318   -3.9942   -1.8200 C.2       1 <0>        -0.1339
      9 C7         -2.2253   -4.7843   -2.9811 C.ar      1 <0>         0.1634
     10 C8         -1.0156   -5.3736   -3.4091 C.ar      1 <0>        -0.2093
     11 S1          0.1675   -4.8113   -2.2127 S.3       1 <0>         0.1009
     12 C9         -0.9524   -6.1752   -4.5337 C.ar      1 <0>         0.2118
     13 C10        -2.1297   -6.3925   -5.2479 C.ar      1 <0>        -0.2392
     14 C11        -3.2941   -5.7965   -4.7947 C.ar      1 <0>         0.1582
     15 N3         -3.3253   -5.0413   -3.7257 N.ar      1 <0>        -0.4795
     16 O1          0.2200   -6.7331   -4.9304 O.3       1 <0>        -0.2341
     17 C12         0.1944   -7.5895   -5.9869 C.ar      1 <0>        -0.0138
     18 C13         0.1135   -8.9566   -5.7692 C.ar      1 <0>        -0.0402
     19 C14         0.0875   -9.8271   -6.8413 C.ar      1 <0>        -0.1771
     20 C15         0.1427   -9.3339   -8.1384 C.ar      1 <0>         0.2541
     21 C16         0.2237   -7.9652   -8.3575 C.ar      1 <0>        -0.2118
     22 C17         0.2436   -7.0940   -7.2838 C.ar      1 <0>         0.1481
     23 F1          0.3168   -5.7617   -7.4958 F         1 <0>        -0.1228
     24 N4          0.1173  -10.2160   -9.2240 N.pl3     1 <0>        -0.7157
     25 C18         0.1756   -9.6956  -10.5922 C.3       1 <0>         0.1291
     26 C19        -0.4702  -10.7006  -11.5482 C.3       1 <0>        -0.1575
     27 C20        -1.9382  -10.8239  -11.2307 C.2       1 <0>         0.5164
     28 O2         -2.4205  -10.1721  -10.3287 O.2       1 <0>        -0.4988
     29 N5         -2.7152  -11.6586  -11.9492 N.am      1 <0>        -0.6714
     30 C21        -4.0960  -11.6955  -11.7254 C.ar      1 <0>         0.1406
     31 C22        -4.7903  -12.8911  -11.8561 C.ar      1 <0>        -0.1438
     32 C23        -6.1531  -12.9243  -11.6346 C.ar      1 <0>        -0.1006
     33 C24        -6.8263  -11.7687  -11.2831 C.ar      1 <0>        -0.1312
     34 C25        -6.1379  -10.5765  -11.1526 C.ar      1 <0>        -0.1001
     35 C26        -4.7740  -10.5379  -11.3667 C.ar      1 <0>        -0.1186
     36 C27         1.6359   -9.4765  -10.9928 C.3       1 <0>         0.4312
     37 F2          2.3250  -10.6922  -10.9265 F         1 <0>        -0.1781
     38 F3          1.6915   -8.9795  -12.2993 F         1 <0>        -0.1780
     39 F4          2.2264   -8.5575  -10.1187 F         1 <0>        -0.1707
     40 H1          1.5570   -2.4592    3.4434 H         1 <0>         0.0821
     41 H2          2.4425   -1.6771    2.1121 H         1 <0>         0.0894
     42 H3          1.2428   -0.7526    3.0472 H         1 <0>         0.0931
     43 H4          1.5240   -3.3963    0.2662 H         1 <0>         0.1823
     44 H5         -1.3225   -1.1728    2.5119 H         1 <0>         0.2143
     45 H6         -3.0116   -3.5078   -1.4254 H         1 <0>         0.1537
     46 H7         -2.1332   -7.0105   -6.1335 H         1 <0>         0.1473
     47 H8         -4.2101   -5.9603   -5.3429 H         1 <0>         0.1652
     48 H9          0.0712   -9.3409   -4.7608 H         1 <0>         0.1456
     49 H10         0.0245  -10.8917   -6.6708 H         1 <0>         0.1400
     50 H11         0.2667   -7.5810   -9.3659 H         1 <0>         0.1404
     51 H12         0.0610  -11.1722   -9.0708 H         1 <0>         0.4140
     52 H13        -0.3613   -8.7484  -10.6439 H         1 <0>         0.1352
     53 H14        -0.3482  -10.3556  -12.5749 H         1 <0>         0.1297
     54 H15         0.0095  -11.6724  -11.4320 H         1 <0>         0.1194
     55 H16        -2.3172  -12.2336  -12.6214 H         1 <0>         0.4129
     56 H17        -4.2651  -13.7939  -12.1310 H         1 <0>         0.1253
     57 H18        -6.6937  -13.8537  -11.7364 H         1 <0>         0.1274
     58 H19        -7.8920  -11.7972  -11.1104 H         1 <0>         0.1249
     59 H20        -6.6666   -9.6756  -10.8782 H         1 <0>         0.1270
     60 H21        -4.2361   -9.6076  -11.2596 H         1 <0>         0.1331
@<TRIPOS>BOND
     1    1    2 1
     2    1   40 1
     3    1   41 1
     4    1   42 1
     5    2    6 1
     6    2    3 1
     7    3    4 2
     8    3   43 1
     9    4    5 1
    10    4    7 1
    11    5    6 2
    12    6   44 1
    13    7   11 1
    14    7    8 2
    15    8    9 1
    16    8   45 1
    17    9   15 ar
    18    9   10 ar
    19   10   11 1
    20   10   12 ar
    21   12   13 ar
    22   12   16 1
    23   13   14 ar
    24   13   46 1
    25   14   15 ar
    26   14   47 1
    27   16   17 1
    28   17   22 ar
    29   17   18 ar
    30   18   19 ar
    31   18   48 1
    32   19   20 ar
    33   19   49 1
    34   20   21 ar
    35   20   24 1
    36   21   22 ar
    37   21   50 1
    38   22   23 1
    39   24   25 1
    40   24   51 1
    41   25   26 1
    42   25   36 1
    43   25   52 1
    44   26   27 1
    45   26   53 1
    46   26   54 1
    47   27   28 2
    48   27   29 am
    49   29   30 1
    50   29   55 1
    51   30   35 ar
    52   30   31 ar
    53   31   32 ar
    54   31   56 1
    55   32   33 ar
    56   32   57 1
    57   33   34 ar
    58   33   58 1
    59   34   35 ar
    60   34   59 1
    61   35   60 1
    62   36   37 1
    63   36   38 1
    64   36   39 1
@<TRIPOS>MOLECULE
CHEMBL602703__1
   61    65     0     0     0
SMALL
USER_CHARGES

@<TRIPOS>ATOM
      1 C1          1.4876   -1.7315    2.6349 C.3       1 <0>         0.0541
      2 N1          0.4400   -2.1422    1.6968 N.pl3     1 <0>        -0.4063
      3 C2          0.6025   -2.9452    0.6035 C.2       1 <0>         0.0489
      4 C3         -0.6218   -3.0663    0.0216 C.2       1 <0>         0.1241
      5 N2         -1.4986   -2.3483    0.7548 N.pl3     1 <0>        -0.4714
      6 C4         -0.8716   -1.7999    1.7570 C.cat     1 <0>         0.3034
      7 C5         -0.9351   -3.8441   -1.1959 C.2       1 <0>        -0.1231
      8 C6         -2.1318   -3.9942   -1.8200 C.2       1 <0>        -0.0817
      9 C7         -2.2253   -4.7843   -2.9811 C.ar      1 <0>         0.1365
     10 C8         -1.0156   -5.3736   -3.4091 C.ar      1 <0>        -0.1940
     11 S1          0.1675   -4.8113   -2.2127 S.3       1 <0>         0.1690
     12 C9         -0.9524   -6.1752   -4.5337 C.ar      1 <0>         0.2100
     13 C10        -2.1297   -6.3925   -5.2479 C.ar      1 <0>        -0.2129
     14 C11        -3.2941   -5.7965   -4.7947 C.ar      1 <0>         0.1662
     15 N3         -3.3253   -5.0413   -3.7257 N.ar      1 <0>        -0.4707
     16 O1          0.2200   -6.7331   -4.9304 O.3       1 <0>        -0.2293
     17 C12         0.1944   -7.5895   -5.9869 C.ar      1 <0>        -0.0291
     18 C13         0.1135   -8.9566   -5.7692 C.ar      1 <0>        -0.0366
     19 C14         0.0875   -9.8271   -6.8413 C.ar      1 <0>        -0.1771
     20 C15         0.1427   -9.3339   -8.1384 C.ar      1 <0>         0.2632
     21 C16         0.2237   -7.9652   -8.3575 C.ar      1 <0>        -0.2121
     22 C17         0.2436   -7.0940   -7.2838 C.ar      1 <0>         0.1512
     23 F1          0.3168   -5.7617   -7.4958 F         1 <0>        -0.1234
     24 N4          0.1173  -10.2160   -9.2240 N.pl3     1 <0>        -0.7127
     25 C18         0.1756   -9.6956  -10.5922 C.3       1 <0>         0.1280
     26 C19        -0.4702  -10.7006  -11.5482 C.3       1 <0>        -0.1592
     27 C20        -1.9382  -10.8239  -11.2307 C.2       1 <0>         0.5181
     28 O2         -2.4205  -10.1721  -10.3287 O.2       1 <0>        -0.5039
     29 N5         -2.7152  -11.6586  -11.9492 N.am      1 <0>        -0.6698
     30 C21        -4.0960  -11.6955  -11.7254 C.ar      1 <0>         0.1392
     31 C22        -4.7903  -12.8911  -11.8561 C.ar      1 <0>        -0.1424
     32 C23        -6.1531  -12.9243  -11.6346 C.ar      1 <0>        -0.0996
     33 C24        -6.8263  -11.7687  -11.2831 C.ar      1 <0>        -0.1301
     34 C25        -6.1379  -10.5765  -11.1526 C.ar      1 <0>        -0.1012
     35 C26        -4.7740  -10.5379  -11.3667 C.ar      1 <0>        -0.1190
     36 C27         1.6359   -9.4765  -10.9928 C.3       1 <0>         0.4320
     37 F2          2.3250  -10.6922  -10.9265 F         1 <0>        -0.1764
     38 F3          1.6915   -8.9795  -12.2993 F         1 <0>        -0.1757
     39 F4          2.2264   -8.5575  -10.1187 F         1 <0>        -0.1724
     40 H1          1.5570   -2.4592    3.4434 H         1 <0>         0.1141
     41 H2          2.4425   -1.6771    2.1121 H         1 <0>         0.1201
     42 H3          1.2428   -0.7526    3.0472 H         1 <0>         0.1190
     43 H4          1.5240   -3.3963    0.2662 H         1 <0>         0.2278
     44 H5         -1.3225   -1.1728    2.5119 H         1 <0>         0.2686
     45 H6         -3.0116   -3.5078   -1.4254 H         1 <0>         0.1489
     46 H7         -2.1332   -7.0105   -6.1335 H         1 <0>         0.1573
     47 H8         -4.2101   -5.9603   -5.3429 H         1 <0>         0.1751
     48 H9          0.0712   -9.3409   -4.7608 H         1 <0>         0.1458
     49 H10         0.0245  -10.8917   -6.6708 H         1 <0>         0.1430
     50 H11         0.2667   -7.5810   -9.3659 H         1 <0>         0.1434
     51 H12         0.0610  -11.1722   -9.0708 H         1 <0>         0.4161
     52 H13        -0.3613   -8.7484  -10.6439 H         1 <0>         0.1359
     53 H14        -0.3482  -10.3556  -12.5749 H         1 <0>         0.1316
     54 H15         0.0095  -11.6724  -11.4320 H         1 <0>         0.1208
     55 H16        -2.3172  -12.2336  -12.6214 H         1 <0>         0.4140
     56 H17        -4.2651  -13.7939  -12.1310 H         1 <0>         0.1263
     57 H18        -6.6937  -13.8537  -11.7364 H         1 <0>         0.1286
     58 H19        -7.8920  -11.7972  -11.1104 H         1 <0>         0.1255
     59 H20        -6.6666   -9.6756  -10.8782 H         1 <0>         0.1264
     60 H21        -4.2361   -9.6076  -11.2596 H         1 <0>         0.1323
     61 H22        -2.4460   -2.2577    0.5673 H         1 <0>         0.4659
@<TRIPOS>BOND
     1    1    2 1
     2    1   40 1
     3    1   41 1
     4    1   42 1
     5    2    6 1
     6    2    3 1
     7    3    4 2
     8    3   43 1
     9    4    5 1
    10    4    7 1
    11    5    6 2
    12    5   61 1
    13    6   44 1
    14    7   11 1
    15    7    8 2
    16    8    9 1
    17    8   45 1
    18    9   15 ar
    19    9   10 ar
    20   10   11 1
    21   10   12 ar
    22   12   13 ar
    23   12   16 1
    24   13   14 ar
    25   13   46 1
    26   14   15 ar
    27   14   47 1
    28   16   17 1
    29   17   22 ar
    30   17   18 ar
    31   18   19 ar
    32   18   48 1
    33   19   20 ar
    34   19   49 1
    35   20   21 ar
    36   20   24 1
    37   21   22 ar
    38   21   50 1
    39   22   23 1
    40   24   25 1
    41   24   51 1
    42   25   26 1
    43   25   36 1
    44   25   52 1
    45   26   27 1
    46   26   53 1
    47   26   54 1
    48   27   28 2
    49   27   29 am
    50   29   30 1
    51   29   55 1
    52   30   35 ar
    53   30   31 ar
    54   31   32 ar
    55   31   56 1
    56   32   33 ar
    57   32   57 1
    58   33   34 ar
    59   33   58 1
    60   34   35 ar
    61   34   59 1
    62   35   60 1
    63   36   37 1
    64   36   38 1
    65   36   39 1
@<TRIPOS>MOLECULE
CHEMBL602703__2
   60    64     0     0     0
SMALL
USER_CHARGES

@<TRIPOS>ATOM
      1 C1          2.1471    2.2046   -0.8602 C.3       1 <0>         0.0699
      2 N1          1.0628    1.5699   -1.6137 N.pl3     1 <0>        -0.4615
      3 C2          1.1753    0.4810   -2.4311 C.2       1 <0>        -0.0138
      4 C3         -0.0687    0.2314   -2.9234 C.2       1 <0>         0.0619
      5 N2         -0.9079    1.1548   -2.4088 N.2       1 <0>        -0.4688
      6 C4         -0.2392    1.9516   -1.6237 C.2       1 <0>         0.1961
      7 C5         -0.4352   -0.8561   -3.8556 C.2       1 <0>        -0.0138
      8 C6         -1.6535   -1.1465   -4.3805 C.2       1 <0>        -0.1341
      9 C7         -1.7987   -2.2354   -5.2604 C.ar      1 <0>         0.1637
     10 C8         -0.6149   -2.9569   -5.5284 C.ar      1 <0>        -0.2095
     11 S1          0.6158   -2.1062   -4.5749 S.3       1 <0>         0.1013
     12 C9         -0.6026   -4.0507   -6.3737 C.ar      1 <0>         0.2121
     13 C10        -1.8057   -4.4320   -6.9658 C.ar      1 <0>        -0.2400
     14 C11        -2.9434   -3.6981   -6.6768 C.ar      1 <0>         0.1582
     15 N3         -2.9262   -2.6657   -5.8719 N.ar      1 <0>        -0.4796
     16 O1          0.5455   -4.7320   -6.6199 O.3       1 <0>        -0.2339
     17 C12         0.4700   -5.8561   -7.3822 C.ar      1 <0>        -0.0135
     18 C13         0.3688   -7.0992   -6.7760 C.ar      1 <0>        -0.0403
     19 C14         0.2921   -8.2413   -7.5490 C.ar      1 <0>        -0.1775
     20 C15         0.3167   -8.1457   -8.9343 C.ar      1 <0>         0.2538
     21 C16         0.4180   -6.9015   -9.5423 C.ar      1 <0>        -0.2115
     22 C17         0.4886   -5.7581   -8.7678 C.ar      1 <0>         0.1482
     23 F1          0.5816   -4.5466   -9.3583 F         1 <0>        -0.1227
     24 N4          0.2400   -9.3028   -9.7170 N.pl3     1 <0>        -0.7159
     25 C18         0.2660   -9.2017  -11.1783 C.3       1 <0>         0.1286
     26 C19         0.7867  -10.5126  -11.7710 C.3       1 <0>        -0.1573
     27 C20         2.2223  -10.7146  -11.3597 C.2       1 <0>         0.5161
     28 O2          2.7747   -9.8911  -10.6613 O.2       1 <0>        -0.4986
     29 N5          2.8925  -11.8104  -11.7680 N.am      1 <0>        -0.6715
     30 C21         4.1894  -12.0515  -11.3014 C.ar      1 <0>         0.1406
     31 C22         5.1245  -12.6602  -12.1283 C.ar      1 <0>        -0.1437
     32 C23         6.4037  -12.8969  -11.6648 C.ar      1 <0>        -0.1004
     33 C24         6.7539  -12.5286  -10.3787 C.ar      1 <0>        -0.1315
     34 C25         5.8251  -11.9227   -9.5527 C.ar      1 <0>        -0.1006
     35 C26         4.5459  -11.6776  -10.0124 C.ar      1 <0>        -0.1187
     36 C27        -1.1486   -8.9342  -11.6963 C.3       1 <0>         0.4316
     37 F2         -1.6247   -7.7355  -11.1543 F         1 <0>        -0.1710
     38 F3         -1.1238   -8.8377  -13.0917 F         1 <0>        -0.1779
     39 F4         -1.9908   -9.9847  -11.3164 F         1 <0>        -0.1778
     40 H1          2.2271    1.7399    0.1225 H         1 <0>         0.0822
     41 H2          3.0862    2.0789   -1.3992 H         1 <0>         0.0894
     42 H3          1.9347    3.2673   -0.7434 H         1 <0>         0.0931
     43 H4          2.0767   -0.0739   -2.6454 H         1 <0>         0.1824
     44 H5         -0.6538    2.7824   -1.0722 H         1 <0>         0.2143
     45 H6         -2.5107   -0.5423   -4.1227 H         1 <0>         0.1537
     46 H7         -1.8491   -5.2793   -7.6342 H         1 <0>         0.1470
     47 H8         -3.8790   -3.9876   -7.1319 H         1 <0>         0.1653
     48 H9          0.3503   -7.1744   -5.6988 H         1 <0>         0.1456
     49 H10         0.2133   -9.2090   -7.0760 H         1 <0>         0.1401
     50 H11         0.4372   -6.8264  -10.6195 H         1 <0>         0.1405
     51 H12         0.1695  -10.1719   -9.2922 H         1 <0>         0.4139
     52 H13         0.9221   -8.3832  -11.4743 H         1 <0>         0.1354
     53 H14         0.1832  -11.3426  -11.4034 H         1 <0>         0.1206
     54 H15         0.7227  -10.4705  -12.8583 H         1 <0>         0.1288
     55 H16         2.4758  -12.4318  -12.3853 H         1 <0>         0.4131
     56 H17         4.8515  -12.9485  -13.1327 H         1 <0>         0.1258
     57 H18         7.1313  -13.3706  -12.3072 H         1 <0>         0.1276
     58 H19         7.7550  -12.7148  -10.0186 H         1 <0>         0.1248
     59 H20         6.1016  -11.6365   -8.5487 H         1 <0>         0.1265
     60 H21         3.8224  -11.1998   -9.3685 H         1 <0>         0.1331
@<TRIPOS>BOND
     1    1    2 1
     2    1   40 1
     3    1   41 1
     4    1   42 1
     5    2    6 1
     6    2    3 1
     7    3    4 2
     8    3   43 1
     9    4    5 1
    10    4    7 1
    11    5    6 2
    12    6   44 1
    13    7   11 1
    14    7    8 2
    15    8    9 1
    16    8   45 1
    17    9   15 ar
    18    9   10 ar
    19   10   11 1
    20   10   12 ar
    21   12   13 ar
    22   12   16 1
    23   13   14 ar
    24   13   46 1
    25   14   15 ar
    26   14   47 1
    27   16   17 1
    28   17   22 ar
    29   17   18 ar
    30   18   19 ar
    31   18   48 1
    32   19   20 ar
    33   19   49 1
    34   20   21 ar
    35   20   24 1
    36   21   22 ar
    37   21   50 1
    38   22   23 1
    39   24   25 1
    40   24   51 1
    41   25   26 1
    42   25   36 1
    43   25   52 1
    44   26   27 1
    45   26   53 1
    46   26   54 1
    47   27   28 2
    48   27   29 am
    49   29   30 1
    50   29   55 1
    51   30   35 ar
    52   30   31 ar
    53   31   32 ar
    54   31   56 1
    55   32   33 ar
    56   32   57 1
    57   33   34 ar
    58   33   58 1
    59   34   35 ar
    60   34   59 1
    61   35   60 1
    62   36   37 1
    63   36   38 1
    64   36   39 1
@<TRIPOS>MOLECULE
CHEMBL602703__3
   61    65     0     0     0
SMALL
USER_CHARGES

@<TRIPOS>ATOM
      1 C1          2.1471    2.2046   -0.8602 C.3       1 <0>         0.0541
      2 N1          1.0628    1.5699   -1.6137 N.pl3     1 <0>        -0.4063
      3 C2          1.1753    0.4810   -2.4311 C.2       1 <0>         0.0490
      4 C3         -0.0687    0.2314   -2.9234 C.2       1 <0>         0.1239
      5 N2         -0.9079    1.1548   -2.4088 N.pl3     1 <0>        -0.4714
      6 C4         -0.2392    1.9516   -1.6237 C.cat     1 <0>         0.3034
      7 C5         -0.4352   -0.8561   -3.8556 C.2       1 <0>        -0.1229
      8 C6         -1.6535   -1.1465   -4.3805 C.2       1 <0>        -0.0819
      9 C7         -1.7987   -2.2354   -5.2604 C.ar      1 <0>         0.1368
     10 C8         -0.6149   -2.9569   -5.5284 C.ar      1 <0>        -0.1941
     11 S1          0.6158   -2.1062   -4.5749 S.3       1 <0>         0.1693
     12 C9         -0.6026   -4.0507   -6.3737 C.ar      1 <0>         0.2102
     13 C10        -1.8057   -4.4320   -6.9658 C.ar      1 <0>        -0.2137
     14 C11        -2.9434   -3.6981   -6.6768 C.ar      1 <0>         0.1662
     15 N3         -2.9262   -2.6657   -5.8719 N.ar      1 <0>        -0.4708
     16 O1          0.5455   -4.7320   -6.6199 O.3       1 <0>        -0.2291
     17 C12         0.4700   -5.8561   -7.3822 C.ar      1 <0>        -0.0289
     18 C13         0.3688   -7.0992   -6.7760 C.ar      1 <0>        -0.0367
     19 C14         0.2921   -8.2413   -7.5490 C.ar      1 <0>        -0.1774
     20 C15         0.3167   -8.1457   -8.9343 C.ar      1 <0>         0.2628
     21 C16         0.4180   -6.9015   -9.5423 C.ar      1 <0>        -0.2117
     22 C17         0.4886   -5.7581   -8.7678 C.ar      1 <0>         0.1513
     23 F1          0.5816   -4.5466   -9.3583 F         1 <0>        -0.1233
     24 N4          0.2400   -9.3028   -9.7170 N.pl3     1 <0>        -0.7128
     25 C18         0.2660   -9.2017  -11.1783 C.3       1 <0>         0.1273
     26 C19         0.7867  -10.5126  -11.7710 C.3       1 <0>        -0.1588
     27 C20         2.2223  -10.7146  -11.3597 C.2       1 <0>         0.5172
     28 O2          2.7747   -9.8911  -10.6613 O.2       1 <0>        -0.5027
     29 N5          2.8925  -11.8104  -11.7680 N.am      1 <0>        -0.6699
     30 C21         4.1894  -12.0515  -11.3014 C.ar      1 <0>         0.1388
     31 C22         5.1245  -12.6602  -12.1283 C.ar      1 <0>        -0.1422
     32 C23         6.4037  -12.8969  -11.6648 C.ar      1 <0>        -0.0993
     33 C24         6.7539  -12.5286  -10.3787 C.ar      1 <0>        -0.1301
     34 C25         5.8251  -11.9227   -9.5527 C.ar      1 <0>        -0.1015
     35 C26         4.5459  -11.6776  -10.0124 C.ar      1 <0>        -0.1191
     36 C27        -1.1486   -8.9342  -11.6963 C.3       1 <0>         0.4326
     37 F2         -1.6247   -7.7355  -11.1543 F         1 <0>        -0.1734
     38 F3         -1.1238   -8.8377  -13.0917 F         1 <0>        -0.1754
     39 F4         -1.9908   -9.9847  -11.3164 F         1 <0>        -0.1763
     40 H1          2.2271    1.7399    0.1225 H         1 <0>         0.1142
     41 H2          3.0862    2.0789   -1.3992 H         1 <0>         0.1202
     42 H3          1.9347    3.2673   -0.7434 H         1 <0>         0.1190
     43 H4          2.0767   -0.0739   -2.6454 H         1 <0>         0.2278
     44 H5         -0.6538    2.7824   -1.0722 H         1 <0>         0.2686
     45 H6         -2.5107   -0.5423   -4.1227 H         1 <0>         0.1489
     46 H7         -1.8491   -5.2793   -7.6342 H         1 <0>         0.1570
     47 H8         -3.8790   -3.9876   -7.1319 H         1 <0>         0.1751
     48 H9          0.3503   -7.1744   -5.6988 H         1 <0>         0.1459
     49 H10         0.2133   -9.2090   -7.0760 H         1 <0>         0.1431
     50 H11         0.4372   -6.8264  -10.6195 H         1 <0>         0.1434
     51 H12         0.1695  -10.1719   -9.2922 H         1 <0>         0.4159
     52 H13         0.9221   -8.3832  -11.4743 H         1 <0>         0.1363
     53 H14         0.1832  -11.3426  -11.4034 H         1 <0>         0.1218
     54 H15         0.7227  -10.4705  -12.8583 H         1 <0>         0.1306
     55 H16         2.4758  -12.4318  -12.3853 H         1 <0>         0.4140
     56 H17         4.8515  -12.9485  -13.1327 H         1 <0>         0.1267
     57 H18         7.1313  -13.3706  -12.3072 H         1 <0>         0.1288
     58 H19         7.7550  -12.7148  -10.0186 H         1 <0>         0.1256
     59 H20         6.1016  -11.6365   -8.5487 H         1 <0>         0.1261
     60 H21         3.8224  -11.1998   -9.3685 H         1 <0>         0.1319
     61 H22        -1.8586    1.2139   -2.5916 H         1 <0>         0.4659
@<TRIPOS>BOND
     1    1    2 1
     2    1   40 1
     3    1   41 1
     4    1   42 1
     5    2    6 1
     6    2    3 1
     7    3    4 2
     8    3   43 1
     9    4    5 1
    10    4    7 1
    11    5    6 2
    12    5   61 1
    13    6   44 1
    14    7   11 1
    15    7    8 2
    16    8    9 1
    17    8   45 1
    18    9   15 ar
    19    9   10 ar
    20   10   11 1
    21   10   12 ar
    22   12   13 ar
    23   12   16 1
    24   13   14 ar
    25   13   46 1
    26   14   15 ar
    27   14   47 1
    28   16   17 1
    29   17   22 ar
    30   17   18 ar
    31   18   19 ar
    32   18   48 1
    33   19   20 ar
    34   19   49 1
    35   20   21 ar
    36   20   24 1
    37   21   22 ar
    38   21   50 1
    39   22   23 1
    40   24   25 1
    41   24   51 1
    42   25   26 1
    43   25   36 1
    44   25   52 1
    45   26   27 1
    46   26   53 1
    47   26   54 1
    48   27   28 2
    49   27   29 am
    50   29   30 1
    51   29   55 1
    52   30   35 ar
    53   30   31 ar
    54   31   32 ar
    55   31   56 1
    56   32   33 ar
    57   32   57 1
    58   33   34 ar
    59   33   58 1
    60   34   35 ar
    61   34   59 1
    62   35   60 1
    63   36   37 1
    64   36   38 1
    65   36   39 1
@<TRIPOS>MOLECULE
CHEMBL393462
   59    61     0     0     0
SMALL
USER_CHARGES

@<TRIPOS>ATOM
      1 C1          0.4517    0.5924    0.6152 C.3       1 <0>        -0.1803
      2 C2          0.2492   -0.9003    0.3469 C.3       1 <0>         0.1117
      3 C3          0.8794   -1.7122    1.4803 C.3       1 <0>        -0.1742
      4 C4         -1.2255   -1.2018    0.2727 C.ar      1 <0>        -0.1127
      5 C5         -2.1220   -0.4395    0.9999 C.ar      1 <0>        -0.0950
      6 C6         -3.4736   -0.7108    0.9355 C.ar      1 <0>        -0.0541
      7 C7         -3.9347   -1.7551    0.1357 C.ar      1 <0>        -0.0376
      8 C8         -3.0267   -2.5198   -0.5948 C.ar      1 <0>        -0.0714
      9 C9         -1.6779   -2.2360   -0.5267 C.ar      1 <0>        -0.1312
     10 C10        -5.3859   -2.0518    0.0627 C.ar      1 <0>         0.2670
     11 C11        -5.9590   -2.5042   -1.1300 C.ar      1 <0>        -0.1890
     12 C12        -7.3180   -2.7684   -1.1494 C.ar      1 <0>         0.2181
     13 N1         -8.0285   -2.5865   -0.0474 N.ar      1 <0>        -0.5384
     14 C13        -7.4583   -2.1568    1.0688 C.ar      1 <0>         0.5702
     15 N2         -6.1620   -1.8970    1.1328 N.ar      1 <0>        -0.5386
     16 N3         -8.2388   -1.9792    2.2002 N.pl3     1 <0>        -0.6352
     17 C14        -9.5835   -2.3617    2.1889 C.ar      1 <0>         0.1755
     18 C15        -9.9695   -3.5298    1.5438 C.ar      1 <0>        -0.1066
     19 C16       -11.2986   -3.9047    1.5345 C.ar      1 <0>        -0.0868
     20 C17       -12.2448   -3.1188    2.1664 C.ar      1 <0>        -0.1192
     21 C18       -11.8639   -1.9553    2.8095 C.ar      1 <0>        -0.0848
     22 C19       -10.5357   -1.5776    2.8275 C.ar      1 <0>        -0.1368
     23 C20       -13.6943   -3.5308    2.1538 C.3       1 <0>        -0.0997
     24 C21       -13.9849   -4.4114    3.3708 C.3       1 <0>        -0.0083
     25 N4        -15.3978   -4.8131    3.3584 N.4       1 <0>        -0.3881
     26 C22       -15.6540   -5.6670    2.1909 C.3       1 <0>        -0.0535
     27 C23       -15.7060   -5.5577    4.5867 C.3       1 <0>        -0.0477
     28 Cl1        -4.9898   -2.7285   -2.5526 Cl        1 <0>        -0.0258
     29 N5          0.8872   -1.2599   -0.9265 N.4       1 <0>        -0.6353
     30 H1          1.5183    0.8105    0.6688 H         1 <0>         0.0903
     31 H2          0.0028    1.1708   -0.1923 H         1 <0>         0.0870
     32 H3         -0.0217    0.8592    1.5600 H         1 <0>         0.1097
     33 H4          0.4060   -1.4454    2.4252 H         1 <0>         0.1081
     34 H5          0.7351   -2.7756    1.2892 H         1 <0>         0.0843
     35 H6          1.9460   -1.4941    1.5339 H         1 <0>         0.0895
     36 H7         -1.7635    0.3691    1.6195 H         1 <0>         0.1440
     37 H8         -4.1726   -0.1153    1.5039 H         1 <0>         0.1439
     38 H9         -3.3784   -3.3304   -1.2158 H         1 <0>         0.1486
     39 H10        -0.9738   -2.8250   -1.0958 H         1 <0>         0.1259
     40 H11        -7.7932   -3.1188   -2.0537 H         1 <0>         0.1880
     41 H12        -7.8522   -1.5895    2.9999 H         1 <0>         0.4298
     42 H13        -9.2311   -4.1439    1.0498 H         1 <0>         0.1321
     43 H14       -11.5994   -4.8126    1.0329 H         1 <0>         0.1285
     44 H15       -12.6054   -1.3435    3.3018 H         1 <0>         0.1310
     45 H16       -10.2382   -0.6711    3.3338 H         1 <0>         0.1330
     46 H17       -14.3249   -2.6425    2.1892 H         1 <0>         0.0958
     47 H18       -13.9052   -4.0899    1.2421 H         1 <0>         0.0958
     48 H19       -13.3543   -5.2998    3.3353 H         1 <0>         0.1305
     49 H20       -13.7740   -3.8523    4.2824 H         1 <0>         0.1319
     50 H21       -16.7024   -5.9650    2.1817 H         1 <0>         0.1257
     51 H22       -15.4253   -5.1145    1.2795 H         1 <0>         0.1245
     52 H23       -15.0243   -6.5550    2.2451 H         1 <0>         0.1224
     53 H24       -15.5159   -4.9241    5.4530 H         1 <0>         0.1236
     54 H25       -16.7544   -5.8557    4.5775 H         1 <0>         0.1258
     55 H26       -15.0763   -6.4457    4.6409 H         1 <0>         0.1218
     56 H27         1.8746   -1.0580   -0.8768 H         1 <0>         0.4389
     57 H28         0.7537   -2.2442   -1.1034 H         1 <0>         0.4326
     58 H29       -15.9808   -3.9910    3.3083 H         1 <0>         0.4275
     59 H30         0.4716   -0.7244   -1.6739 H         1 <0>         0.4370
@<TRIPOS>BOND
     1    1    2 1
     2    1   30 1
     3    1   31 1
     4    1   32 1
     5    2    3 1
     6    2    4 1
     7    2   29 1
     8    3   33 1
     9    3   34 1
    10    3   35 1
    11    4    9 ar
    12    4    5 ar
    13    5    6 ar
    14    5   36 1
    15    6    7 ar
    16    6   37 1
    17    7    8 ar
    18    7   10 1
    19    8    9 ar
    20    8   38 1
    21    9   39 1
    22   10   15 ar
    23   10   11 ar
    24   11   12 ar
    25   11   28 1
    26   12   13 ar
    27   12   40 1
    28   13   14 ar
    29   14   15 ar
    30   14   16 1
    31   16   17 1
    32   16   41 1
    33   17   22 ar
    34   17   18 ar
    35   18   19 ar
    36   18   42 1
    37   19   20 ar
    38   19   43 1
    39   20   21 ar
    40   20   23 1
    41   21   22 ar
    42   21   44 1
    43   22   45 1
    44   23   24 1
    45   23   46 1
    46   23   47 1
    47   24   25 1
    48   24   48 1
    49   24   49 1
    50   25   26 1
    51   25   27 1
    52   25   58 1
    53   26   50 1
    54   26   51 1
    55   26   52 1
    56   27   53 1
    57   27   54 1
    58   27   55 1
    59   29   56 1
    60   29   57 1
    61   29   59 1
@<TRIPOS>MOLECULE
CHEMBL256116
   45    48     0     0     0
SMALL
USER_CHARGES

@<TRIPOS>ATOM
      1 C1          2.1647    0.5525    2.0229 C.3       1 <0>        -0.0966
      2 C2          1.5295   -0.6666    1.4053 C.2       1 <0>         0.0988
      3 C3          2.1993   -1.7314    0.9375 C.2       1 <0>        -0.1798
      4 C4          1.1998   -2.6734    0.4306 C.ar      1 <0>        -0.1793
      5 C5          1.2637   -3.9366   -0.1671 C.ar      1 <0>         0.2039
      6 C6          0.0696   -4.5477   -0.5279 C.ar      1 <0>        -0.0339
      7 C7         -1.1305   -3.8903   -0.2851 C.ar      1 <0>         0.1863
      8 N1         -1.1623   -2.7012    0.2787 N.ar      1 <0>        -0.4817
      9 C8         -0.0533   -2.0708    0.6442 C.ar      1 <0>         0.3221
     10 N2          0.1828   -0.8552    1.2434 N.pl3     1 <0>        -0.5699
     11 H1         -0.5035   -0.2235    1.5097 H         1 <0>         0.4259
     12 O1          0.0748   -5.7759   -1.1129 O.3       1 <0>        -0.2044
     13 C9          0.1974   -6.8604   -0.3124 C.2       1 <0>         0.4641
     14 C10         0.3288   -8.1495   -0.8722 C.2       1 <0>        -0.0661
     15 C11         0.3674   -8.6301   -2.1680 C.2       1 <0>        -0.0780
     16 C12         0.5153  -10.0177   -2.0843 C.2       1 <0>         0.0613
     17 C13         0.5635  -10.3547   -0.7646 C.2       1 <0>        -0.0086
     18 N3          0.4514   -9.2305   -0.0194 N.pl3     1 <0>        -0.2300
     19 N4          0.4393   -8.9923    1.3622 N.2       1 <0>        -0.3265
     20 C14         0.3144   -7.7742    1.8129 C.2       1 <0>         0.3244
     21 N5          0.2010   -6.7240    1.0015 N.2       1 <0>        -0.6020
     22 O2          0.5967  -10.8797   -3.1350 O.3       1 <0>        -0.2789
     23 C15         0.7466  -12.2669   -2.8260 C.3       1 <0>         0.0246
     24 C16         0.8198  -13.0735   -4.1240 C.3       1 <0>         0.1065
     25 H2          1.6187  -12.6793   -4.7522 H         1 <0>         0.1107
     26 C17         1.1049  -14.5408   -3.7973 C.3       1 <0>        -0.1841
     27 O3         -0.4253  -12.9732   -4.8180 O.3       1 <0>        -0.5527
     28 C18         0.2684   -7.8133   -3.4306 C.3       1 <0>        -0.0833
     29 F1          2.4505   -4.5434   -0.3871 F         1 <0>        -0.1121
     30 H3          2.2682    0.4033    3.0977 H         1 <0>         0.0851
     31 H4          3.1485    0.7125    1.5819 H         1 <0>         0.0922
     32 H5          1.5367    1.4236    1.8358 H         1 <0>         0.0752
     33 H6          3.2708   -1.8672    0.9351 H         1 <0>         0.1580
     34 H7         -2.0586   -4.3659   -0.5658 H         1 <0>         0.1798
     35 H8          0.6728  -11.3566   -0.3764 H         1 <0>         0.1821
     36 H9          0.3069   -7.6115    2.8806 H         1 <0>         0.2249
     37 H10         1.6627  -12.4147   -2.2542 H         1 <0>         0.0706
     38 H11        -0.1072  -12.6023   -2.2374 H         1 <0>         0.0644
     39 H12         0.3060  -14.9349   -3.1691 H         1 <0>         0.0625
     40 H13         1.1570  -15.1154   -4.7221 H         1 <0>         0.0757
     41 H14         2.0546  -14.6172   -3.2680 H         1 <0>         0.0707
     42 H15        -1.1826  -13.3064   -4.3174 H         1 <0>         0.3751
     43 H16         1.2664   -7.5078   -3.7448 H         1 <0>         0.0730
     44 H17        -0.1921   -8.4128   -4.2159 H         1 <0>         0.0774
     45 H18        -0.3406   -6.9288   -3.2443 H         1 <0>         0.0724
@<TRIPOS>BOND
     1    1    2 1
     2    1   30 1
     3    1   31 1
     4    1   32 1
     5    2   10 1
     6    2    3 2
     7    3    4 1
     8    3   33 1
     9    4    9 ar
    10    4    5 ar
    11    5    6 ar
    12    5   29 1
    13    6    7 ar
    14    6   12 1
    15    7    8 ar
    16    7   34 1
    17    8    9 ar
    18    9   10 1
    19   10   11 1
    20   12   13 1
    21   13   21 2
    22   13   14 1
    23   14   18 1
    24   14   15 2
    25   15   16 1
    26   15   28 1
    27   16   17 2
    28   16   22 1
    29   17   18 1
    30   17   35 1
    31   18   19 1
    32   19   20 2
    33   20   21 1
    34   20   36 1
    35   22   23 1
    36   23   24 1
    37   23   37 1
    38   23   38 1
    39   24   25 1
    40   24   26 1
    41   24   27 1
    42   26   39 1
    43   26   40 1
    44   26   41 1
    45   27   42 1
    46   28   43 1
    47   28   44 1
    48   28   45 1
@<TRIPOS>MOLECULE
CHEMBL179603
   55    58     0     0     0
SMALL
USER_CHARGES

@<TRIPOS>ATOM
      1 C1         -3.8027   -0.5552    3.4243 C.3       1 <0>         0.0262
      2 O1         -2.5534    0.0204    3.0369 O.3       1 <0>        -0.3175
      3 C2         -1.4255   -0.5994    3.4759 C.ar      1 <0>         0.1146
      4 C3         -1.5215   -1.7409    4.2582 C.ar      1 <0>        -0.1874
      5 C4         -0.3764   -2.3708    4.7044 C.ar      1 <0>        -0.0776
      6 C5          0.8710   -1.8614    4.3698 C.ar      1 <0>         0.1218
      7 C6          0.9663   -0.7189    3.5867 C.ar      1 <0>        -0.1032
      8 C7         -0.1795   -0.0931    3.1365 C.ar      1 <0>        -0.1315
      9 N1          2.0334   -2.4999    4.8226 N.am      1 <0>        -0.6778
     10 C8          2.0529   -3.8395    4.9690 C.2       1 <0>         0.7043
     11 O2          1.0962   -4.5034    4.6190 O.2       1 <0>        -0.5534
     12 N2          3.1329   -4.4433    5.5034 N.am      1 <0>        -0.6817
     13 C9          3.1986   -5.8418    5.5573 C.ar      1 <0>         0.1740
     14 C10         2.6157   -6.6036    4.5534 C.ar      1 <0>        -0.1052
     15 C11         2.6807   -7.9819    4.6070 C.ar      1 <0>        -0.0878
     16 C12         3.3284   -8.6055    5.6637 C.ar      1 <0>         0.0687
     17 C13         3.9107   -7.8448    6.6673 C.ar      1 <0>        -0.0871
     18 C14         3.8516   -6.4663    6.6116 C.ar      1 <0>        -0.1327
     19 O3          3.3921   -9.9626    5.7160 O.3       1 <0>        -0.2350
     20 C15         4.2657  -10.5896    4.8947 C.ar      1 <0>         0.3991
     21 C16         4.3077  -11.9999    4.8217 C.ar      1 <0>        -0.1550
     22 C17         3.4572  -12.8090    5.5868 C.ar      1 <0>        -0.1366
     23 C18         3.5409  -14.1676    5.4760 C.ar      1 <0>         0.1095
     24 C19         4.4677  -14.7601    4.6061 C.ar      1 <0>         0.1694
     25 C20         5.3088  -13.9932    3.8492 C.ar      1 <0>        -0.1877
     26 C21         5.2449  -12.5972    3.9420 C.ar      1 <0>         0.1975
     27 N3          6.0480  -11.8015    3.2196 N.ar      1 <0>        -0.5259
     28 C22         5.9636  -10.4972    3.3292 C.ar      1 <0>         0.3376
     29 N4          5.1003   -9.8971    4.1339 N.ar      1 <0>        -0.5744
     30 O4          4.5306  -16.1140    4.5147 O.3       1 <0>        -0.2967
     31 C23         5.4946  -16.6592    3.6116 C.3       1 <0>         0.0195
     32 O5          2.7168  -14.9547    6.2178 O.3       1 <0>        -0.3001
     33 C24         1.7948  -14.2922    7.0856 C.3       1 <0>         0.0215
     34 H1         -3.8773   -0.5634    4.5117 H         1 <0>         0.0560
     35 H2         -4.6192    0.0350    3.0085 H         1 <0>         0.1012
     36 H3         -3.8643   -1.5764    3.0482 H         1 <0>         0.0564
     37 H4         -2.4919   -2.1368    4.5187 H         1 <0>         0.1322
     38 H5         -0.4513   -3.2593    5.3138 H         1 <0>         0.1391
     39 H6          1.9364   -0.3219    3.3264 H         1 <0>         0.1337
     40 H7         -0.1054    0.7929    2.5234 H         1 <0>         0.1366
     41 H8          2.8239   -1.9777    5.0306 H         1 <0>         0.4090
     42 H9          3.8646   -3.9097    5.8508 H         1 <0>         0.4108
     43 H10         2.1112   -6.1183    3.7310 H         1 <0>         0.1442
     44 H11         2.2270   -8.5745    3.8264 H         1 <0>         0.1299
     45 H12         4.4144   -8.3307    7.4898 H         1 <0>         0.1355
     46 H13         4.3091   -5.8742    7.3903 H         1 <0>         0.1359
     47 H14         2.7406  -12.3614    6.2595 H         1 <0>         0.1537
     48 H15         6.0188  -14.4612    3.1834 H         1 <0>         0.1581
     49 H16         6.6248   -9.8855    2.7334 H         1 <0>         0.2003
     50 H17         5.2861  -16.3068    2.6014 H         1 <0>         0.0625
     51 H18         6.4931  -16.3390    3.9093 H         1 <0>         0.0624
     52 H19         5.4399  -17.7475    3.6354 H         1 <0>         0.1078
     53 H20         2.3447  -13.6846    7.8043 H         1 <0>         0.0594
     54 H21         1.1373  -13.6525    6.4969 H         1 <0>         0.0595
     55 H22         1.1992  -15.0341    7.6174 H         1 <0>         0.1064
@<TRIPOS>BOND
     1    1    2 1
     2    1   34 1
     3    1   35 1
     4    1   36 1
     5    2    3 1
     6    3    8 ar
     7    3    4 ar
     8    4    5 ar
     9    4   37 1
    10    5    6 ar
    11    5   38 1
    12    6    7 ar
    13    6    9 1
    14    7    8 ar
    15    7   39 1
    16    8   40 1
    17    9   10 am
    18    9   41 1
    19   10   11 2
    20   10   12 am
    21   12   13 1
    22   12   42 1
    23   13   18 ar
    24   13   14 ar
    25   14   15 ar
    26   14   43 1
    27   15   16 ar
    28   15   44 1
    29   16   17 ar
    30   16   19 1
    31   17   18 ar
    32   17   45 1
    33   18   46 1
    34   19   20 1
    35   20   29 ar
    36   20   21 ar
    37   21   26 ar
    38   21   22 ar
    39   22   23 ar
    40   22   47 1
    41   23   24 ar
    42   23   32 1
    43   24   25 ar
    44   24   30 1
    45   25   26 ar
    46   25   48 1
    47   26   27 ar
    48   27   28 ar
    49   28   29 ar
    50   28   49 1
    51   30   31 1
    52   31   50 1
    53   31   51 1
    54   31   52 1
    55   32   33 1
    56   33   53 1
    57   33   54 1
    58   33   55 1
@<TRIPOS>MOLECULE
CHEMBL372349
   54    57     0     0     0
SMALL
USER_CHARGES

@<TRIPOS>ATOM
      1 C1          0.8826    0.8342    1.7555 C.3       1 <0>         0.0307
      2 O1          0.7965   -0.5572    1.4418 O.3       1 <0>        -0.3850
      3 C2          1.2782   -0.8900    0.1383 C.3       1 <0>         0.0625
      4 C3          1.1385   -2.3968   -0.0878 C.3       1 <0>         0.0532
      5 O2         -0.2458   -2.7511   -0.0946 O.3       1 <0>        -0.2851
      6 C4         -0.5459   -4.0621   -0.2852 C.ar      1 <0>         0.1698
      7 C5          0.4635   -4.9673   -0.4527 C.ar      1 <0>        -0.1860
      8 C6          0.1546   -6.3207   -0.6490 C.ar      1 <0>         0.1828
      9 C7         -1.2053   -6.7293   -0.6704 C.ar      1 <0>        -0.1093
     10 C8         -2.2187   -5.7826   -0.4965 C.ar      1 <0>        -0.1463
     11 C9         -1.8890   -4.4699   -0.3015 C.ar      1 <0>         0.1251
     12 O3         -2.8728   -3.5491   -0.1267 O.3       1 <0>        -0.2959
     13 C10        -4.2198   -4.0257   -0.1535 C.3       1 <0>         0.0210
     14 C11        -1.4867   -8.1056   -0.8705 C.ar      1 <0>         0.3471
     15 N1         -0.4603   -8.9386   -1.0272 N.ar      1 <0>        -0.5457
     16 C12         0.7878   -8.5074   -0.9990 C.ar      1 <0>         0.3148
     17 N2          1.1066   -7.2464   -0.8175 N.ar      1 <0>        -0.4975
     18 N3         -2.7688   -8.5608   -0.9009 N.2       1 <0>        -0.4123
     19 C13        -3.0045   -9.8416   -0.9416 C.2       1 <0>         0.1804
     20 C14        -4.3709  -10.4000   -1.3057 C.3       1 <0>        -0.1184
     21 C15        -4.1473  -11.4564   -2.3668 C.2       1 <0>         0.3736
     22 C16        -2.9971  -12.3727   -2.2453 C.2       1 <0>         0.0440
     23 C17        -1.9480  -12.0837   -1.4350 C.2       1 <0>        -0.1335
     24 C18        -1.9506  -10.8498   -0.6406 C.2       1 <0>         0.3971
     25 O4         -1.1236  -10.6605    0.2317 O.2       1 <0>        -0.3694
     26 O5         -2.9883  -13.5233   -2.9561 O.3       1 <0>        -0.2310
     27 C19        -3.8865  -14.4861   -2.6221 C.ar      1 <0>         0.1473
     28 C20        -3.9902  -15.6371   -3.3915 C.ar      1 <0>        -0.1450
     29 C21        -4.9035  -16.6154   -3.0505 C.ar      1 <0>        -0.0483
     30 C22        -5.7153  -16.4502   -1.9435 C.ar      1 <0>        -0.1792
     31 C23        -5.6153  -15.3033   -1.1738 C.ar      1 <0>         0.1424
     32 C24        -4.6977  -14.3232   -1.5084 C.ar      1 <0>        -0.2366
     33 F1         -6.4102  -15.1436   -0.0932 F         1 <0>        -0.1311
     34 O6         -4.9039  -11.5486   -3.3044 O.2       1 <0>        -0.3898
     35 H1          1.9234    1.1542    1.7060 H         1 <0>         0.0426
     36 H2          0.2923    1.4055    1.0390 H         1 <0>         0.0438
     37 H3          0.4976    1.0045    2.7610 H         1 <0>         0.0886
     38 H4          0.6962   -0.3546   -0.6119 H         1 <0>         0.0642
     39 H5          2.3273   -0.6059    0.0551 H         1 <0>         0.0759
     40 H6          1.5866   -2.6636   -1.0450 H         1 <0>         0.0856
     41 H7          1.6469   -2.9331    0.7134 H         1 <0>         0.0791
     42 H8          1.4933   -4.6422   -0.4345 H         1 <0>         0.1577
     43 H9         -3.2550   -6.0863   -0.5121 H         1 <0>         0.1583
     44 H10        -4.9037   -3.1906   -0.0021 H         1 <0>         0.1071
     45 H11        -4.4216   -4.4903   -1.1186 H         1 <0>         0.0610
     46 H12        -4.3613   -4.7597    0.6398 H         1 <0>         0.0603
     47 H13         1.5835   -9.2255   -1.1314 H         1 <0>         0.1993
     48 H14        -4.8361  -10.8474   -0.4274 H         1 <0>         0.1473
     49 H15        -1.1088  -12.7610   -1.3771 H         1 <0>         0.1704
     50 H16        -3.3569  -15.7673   -4.2566 H         1 <0>         0.1451
     51 H17        -4.9839  -17.5105   -3.6495 H         1 <0>         0.1478
     52 H18        -6.4288  -17.2166   -1.6789 H         1 <0>         0.1431
     53 H19        -4.6161  -13.4305   -0.9060 H         1 <0>         0.1348
     54 H20        -5.0052   -9.6050   -1.6981 H         1 <0>         0.1416
@<TRIPOS>BOND
     1    1    2 1
     2    1   35 1
     3    1   36 1
     4    1   37 1
     5    2    3 1
     6    3    4 1
     7    3   38 1
     8    3   39 1
     9    4    5 1
    10    4   40 1
    11    4   41 1
    12    5    6 1
    13    6   11 ar
    14    6    7 ar
    15    7    8 ar
    16    7   42 1
    17    8   17 ar
    18    8    9 ar
    19    9   10 ar
    20    9   14 ar
    21   10   11 ar
    22   10   43 1
    23   11   12 1
    24   12   13 1
    25   13   44 1
    26   13   45 1
    27   13   46 1
    28   14   15 ar
    29   14   18 1
    30   15   16 ar
    31   16   17 ar
    32   16   47 1
    33   18   19 2
    34   19   24 1
    35   19   20 1
    36   20   48 1
    37   20   54 1
    38   20   21 1
    39   21   34 2
    40   21   22 1
    41   22   26 1
    42   22   23 2
    43   23   24 1
    44   23   49 1
    45   24   25 2
    46   26   27 1
    47   27   32 ar
    48   27   28 ar
    49   28   29 ar
    50   28   50 1
    51   29   30 ar
    52   29   51 1
    53   30   31 ar
    54   30   52 1
    55   31   32 ar
    56   31   33 1
    57   32   53 1
@<TRIPOS>MOLECULE
CHEMBL192856
   84    86     0     0     0
SMALL
USER_CHARGES

@<TRIPOS>ATOM
      1 C1          0.0823    1.4510   -0.2163 C.3       1 <0>        -0.1879
      2 C2          0.0237   -0.0664   -0.0289 C.3       1 <0>        -0.0161
      3 N1         -1.3740   -0.4850    0.1418 N.4       1 <0>        -0.3866
      4 C3         -2.1159   -0.2330   -1.1009 C.3       1 <0>        -0.0149
      5 C4         -3.5996   -0.5332   -0.8788 C.3       1 <0>        -0.1884
      6 C5         -1.4206   -1.9189    0.4577 C.3       1 <0>        -0.0151
      7 C6         -0.7562   -2.1642    1.8139 C.3       1 <0>        -0.1477
      8 C7         -0.8047   -3.6576    2.1429 C.3       1 <0>        -0.1145
      9 C8         -0.1402   -3.9029    3.4991 C.3       1 <0>        -0.1313
     10 C9         -0.1888   -5.3963    3.8281 C.3       1 <0>         0.1268
     11 N2          0.4475   -5.6312    5.1266 N.pl3     1 <0>        -0.7265
     12 C10         0.5240   -6.9207    5.6400 C.ar      1 <0>         0.4053
     13 C11        -0.0002   -7.9690    4.9096 C.ar      1 <0>        -0.2387
     14 C12         0.0828   -9.2667    5.4379 C.ar      1 <0>         0.2371
     15 C13         0.7057   -9.4326    6.7041 C.ar      1 <0>        -0.2369
     16 C14         0.8018  -10.7219    7.2571 C.ar      1 <0>         0.0273
     17 C15         0.2792  -11.7805    6.5335 C.ar      1 <0>        -0.1541
     18 C16        -0.3256  -11.5379    5.2810 C.ar      1 <0>         0.4528
     19 N3         -0.4052  -10.3226    4.7813 N.ar      1 <0>        -0.4829
     20 N4         -0.8475  -12.6040    4.5608 N.am      1 <0>        -0.6658
     21 C17        -1.4280  -12.3887    3.3636 C.2       1 <0>         0.6957
     22 O1         -1.4945  -11.2610    2.9144 O.2       1 <0>        -0.5178
     23 N5         -1.9346  -13.4236    2.6646 N.am      1 <0>        -0.7357
     24 C18        -2.5656  -13.1896    1.3633 C.3       1 <0>         0.1877
     25 C19        -1.5481  -12.5616    0.4087 C.3       1 <0>        -0.1650
     26 C20        -3.0527  -14.5202    0.7860 C.3       1 <0>        -0.1571
     27 C21        -3.7549  -12.2427    1.5360 C.3       1 <0>        -0.1649
     28 C22         0.3547  -13.1605    7.0705 C.ar      1 <0>         0.0367
     29 C23        -0.7858  -13.9604    7.1031 C.ar      1 <0>        -0.1994
     30 C24        -0.7118  -15.2494    7.6056 C.ar      1 <0>         0.1780
     31 C25         0.4958  -15.7438    8.0764 C.ar      1 <0>        -0.2959
     32 C26         1.6330  -14.9499    8.0458 C.ar      1 <0>         0.1780
     33 C27         1.5674  -13.6623    7.5384 C.ar      1 <0>        -0.1738
     34 O2          2.8141  -15.4378    8.5083 O.3       1 <0>        -0.3100
     35 C28         2.8110  -16.7754    9.0114 C.3       1 <0>         0.0245
     36 O3         -1.8237  -16.0303    7.6378 O.3       1 <0>        -0.3110
     37 C29        -1.6754  -17.3486    8.1688 C.3       1 <0>         0.0243
     38 C30         1.2077   -8.3051    7.3690 C.ar      1 <0>         0.2221
     39 N6          1.1053   -7.1159    6.8211 N.ar      1 <0>        -0.5409
     40 H1          1.1228    1.7753   -0.2311 H         1 <0>         0.1058
     41 H2         -0.3953    1.7194   -1.1586 H         1 <0>         0.0805
     42 H3         -0.4388    1.9392    0.6072 H         1 <0>         0.0794
     43 H4          0.4455   -0.5574   -0.9059 H         1 <0>         0.1291
     44 H5          0.5971   -0.3457    0.8550 H         1 <0>         0.1316
     45 H6         -1.9958    0.8109   -1.3904 H         1 <0>         0.1315
     46 H7         -1.7294   -0.8761   -1.8915 H         1 <0>         0.1289
     47 H8         -4.1656   -0.2421   -1.7637 H         1 <0>         0.1059
     48 H9         -3.7314   -1.6000   -0.6980 H         1 <0>         0.0808
     49 H10        -3.9590    0.0285   -0.0166 H         1 <0>         0.0794
     50 H11        -2.4588   -2.2488    0.4968 H         1 <0>         0.1330
     51 H12        -0.8905   -2.4782   -0.3132 H         1 <0>         0.1302
     52 H13         0.2820   -1.8343    1.7748 H         1 <0>         0.0876
     53 H14        -1.2864   -1.6049    2.5847 H         1 <0>         0.0875
     54 H15        -1.8428   -3.9875    2.1820 H         1 <0>         0.0791
     55 H16        -0.2745   -4.2169    1.3720 H         1 <0>         0.0789
     56 H17         0.8979   -3.5730    3.4600 H         1 <0>         0.0747
     57 H18        -0.6704   -3.3436    4.2699 H         1 <0>         0.0751
     58 H19        -1.2269   -5.7262    3.8672 H         1 <0>         0.0669
     59 H20         0.3414   -5.9556    3.0573 H         1 <0>         0.0668
     60 H21         0.8154   -4.8869    5.6282 H         1 <0>         0.4051
     61 H22        -0.4651   -7.7936    3.9507 H         1 <0>         0.1393
     62 H23         1.2696  -10.8818    8.2173 H         1 <0>         0.1527
     63 H24        -0.7944  -13.5038    4.9193 H         1 <0>         0.4165
     64 H25        -1.8815  -14.3234    3.0230 H         1 <0>         0.3957
     65 H26        -0.7008  -13.2362    0.2856 H         1 <0>         0.0533
     66 H27        -2.0175  -12.3875   -0.5595 H         1 <0>         0.0630
     67 H28        -1.2011  -11.6137    0.8199 H         1 <0>         0.0797
     68 H29        -3.7776  -14.9676    1.4661 H         1 <0>         0.0635
     69 H30        -3.5222  -14.3461   -0.1822 H         1 <0>         0.0766
     70 H31        -2.2054  -15.1948    0.6630 H         1 <0>         0.0631
     71 H32        -3.4078  -11.2948    1.9472 H         1 <0>         0.0797
     72 H33        -4.2243  -12.0686    0.5678 H         1 <0>         0.0629
     73 H34        -4.4797  -12.6902    2.2161 H         1 <0>         0.0537
     74 H35        -1.7265  -13.5759    6.7374 H         1 <0>         0.1344
     75 H36         0.5507  -16.7488    8.4679 H         1 <0>         0.1386
     76 H37         2.4542  -13.0465    7.5104 H         1 <0>         0.1379
     77 H38         3.8137  -17.0394    9.3476 H         1 <0>         0.1057
     78 H39         2.1165  -16.8471    9.8485 H         1 <0>         0.0579
     79 H40         2.5004  -17.4598    8.2220 H         1 <0>         0.0574
     80 H41        -0.9473  -17.9001    7.5740 H         1 <0>         0.0578
     81 H42        -1.3302  -17.2879    9.2009 H         1 <0>         0.0580
     82 H43        -2.6357  -17.8634    8.1365 H         1 <0>         0.1055
     83 H44         1.6835   -8.4153    8.3323 H         1 <0>         0.1704
     84 H45        -1.7925    0.0392    0.8955 H         1 <0>         0.4217
@<TRIPOS>BOND
     1    1    2 1
     2    1   40 1
     3    1   41 1
     4    1   42 1
     5    2    3 1
     6    2   43 1
     7    2   44 1
     8    3    4 1
     9    3    6 1
    10    3   84 1
    11    4    5 1
    12    4   45 1
    13    4   46 1
    14    5   47 1
    15    5   48 1
    16    5   49 1
    17    6    7 1
    18    6   50 1
    19    6   51 1
    20    7    8 1
    21    7   52 1
    22    7   53 1
    23    8    9 1
    24    8   54 1
    25    8   55 1
    26    9   10 1
    27    9   56 1
    28    9   57 1
    29   10   11 1
    30   10   58 1
    31   10   59 1
    32   11   12 1
    33   11   60 1
    34   12   39 ar
    35   12   13 ar
    36   13   14 ar
    37   13   61 1
    38   14   19 ar
    39   14   15 ar
    40   15   16 ar
    41   15   38 ar
    42   16   17 ar
    43   16   62 1
    44   17   18 ar
    45   17   28 1
    46   18   19 ar
    47   18   20 1
    48   20   21 am
    49   20   63 1
    50   21   22 2
    51   21   23 am
    52   23   24 1
    53   23   64 1
    54   24   25 1
    55   24   26 1
    56   24   27 1
    57   25   65 1
    58   25   66 1
    59   25   67 1
    60   26   68 1
    61   26   69 1
    62   26   70 1
    63   27   71 1
    64   27   72 1
    65   27   73 1
    66   28   33 ar
    67   28   29 ar
    68   29   30 ar
    69   29   74 1
    70   30   31 ar
    71   30   36 1
    72   31   32 ar
    73   31   75 1
    74   32   33 ar
    75   32   34 1
    76   33   76 1
    77   34   35 1
    78   35   77 1
    79   35   78 1
    80   35   79 1
    81   36   37 1
    82   37   80 1
    83   37   81 1
    84   37   82 1
    85   38   39 ar
    86   38   83 1
@<TRIPOS>MOLECULE
CHEMBL212964
   51    54     0     0     0
SMALL
USER_CHARGES

@<TRIPOS>ATOM
      1 C1         -0.0483    1.5024    0.0098 C.3       1 <0>        -0.1268
      2 C2         -0.0195   -0.0043    0.0016 C.ar      1 <0>        -0.0386
      3 C3         -0.0178   -0.6868   -1.1996 C.ar      1 <0>        -0.1235
      4 C4          0.0085   -2.0667   -1.2158 C.ar      1 <0>        -0.0786
      5 C5          0.0330   -2.7811   -0.0158 C.ar      1 <0>        -0.1429
      6 C6          0.0314   -2.0969    1.1984 C.ar      1 <0>        -0.0381
      7 C7          0.0111   -0.7058    1.2063 C.ar      1 <0>        -0.0515
      8 C8          0.0158    0.0300    2.4946 C.ar      1 <0>        -0.0772
      9 C9          0.9293    1.0770    2.6951 C.ar      1 <0>        -0.0510
     10 C10         0.9551    1.7681    3.8654 C.ar      1 <0>        -0.1204
     11 C11         0.0589    1.4368    4.8939 C.ar      1 <0>         0.2179
     12 C12        -0.8687    0.3799    4.7012 C.ar      1 <0>        -0.2150
     13 C13        -0.8839   -0.3174    3.4865 C.ar      1 <0>        -0.0353
     14 C14        -1.7564    0.0690    5.7490 C.ar      1 <0>         0.2447
     15 N1         -1.6869    0.7718    6.8601 N.ar      1 <0>        -0.5585
     16 C15        -0.8035    1.7573    7.0067 C.ar      1 <0>         0.5695
     17 N2          0.0519    2.0930    6.0606 N.ar      1 <0>        -0.5745
     18 N3         -0.7822    2.4573    8.1995 N.pl3     1 <0>        -0.7003
     19 C16        -1.7195    2.1088    9.2701 C.3       1 <0>         0.1036
     20 C17         0.0602   -4.2590   -0.0337 C.2       1 <0>         0.5622
     21 O1          0.0816   -4.8792    1.0117 O.2       1 <0>        -0.5109
     22 N4          0.0613   -4.9189   -1.2088 N.am      1 <0>        -0.6699
     23 C18         0.1847   -6.3117   -1.2285 C.ar      1 <0>         0.1443
     24 C19         0.8894   -6.9337   -2.2514 C.ar      1 <0>        -0.1118
     25 C20         1.0099   -8.3092   -2.2677 C.ar      1 <0>        -0.0994
     26 C21         0.4298   -9.0675   -1.2671 C.ar      1 <0>        -0.0865
     27 C22        -0.2722   -8.4516   -0.2475 C.ar      1 <0>        -0.1642
     28 C23        -0.3920   -7.0758   -0.2225 C.ar      1 <0>        -0.0722
     29 C24        -0.9025   -9.2820    0.8407 C.3       1 <0>         0.5093
     30 F1         -0.6426  -10.6360    0.6040 F         1 <0>        -0.1761
     31 F2         -0.3653   -8.9135    2.0788 F         1 <0>        -0.1725
     32 F3         -2.2849   -9.0671    0.8497 F         1 <0>        -0.1757
     33 H1          0.9721    1.8854   -0.0029 H         1 <0>         0.0794
     34 H2         -0.5817    1.8604   -0.8708 H         1 <0>         0.0726
     35 H3         -0.5562    1.8513    0.9089 H         1 <0>         0.0757
     36 H4         -0.0375   -0.1384   -2.1297 H         1 <0>         0.1346
     37 H5          0.0097   -2.5949   -2.1579 H         1 <0>         0.1271
     38 H6          0.0504   -2.6442    2.1292 H         1 <0>         0.1407
     39 H7          1.6219    1.3369    1.9082 H         1 <0>         0.1341
     40 H8          1.6644    2.5707    4.0039 H         1 <0>         0.1397
     41 H9         -1.5883   -1.1204    3.3272 H         1 <0>         0.1366
     42 H10        -2.4780   -0.7275    5.6434 H         1 <0>         0.1790
     43 H11        -0.1467    3.1789    8.3270 H         1 <0>         0.4167
     44 H12        -1.5540    2.7640   10.1254 H         1 <0>         0.0775
     45 H13        -2.7417    2.2301    8.9119 H         1 <0>         0.0605
     46 H14        -1.5600    1.0730    9.5698 H         1 <0>         0.0606
     47 H15        -0.0236   -4.4277   -2.0409 H         1 <0>         0.4141
     48 H16         1.3423   -6.3421   -3.0333 H         1 <0>         0.1371
     49 H17         1.5573   -8.7933   -3.0629 H         1 <0>         0.1416
     50 H18         0.5252  -10.1432   -1.2823 H         1 <0>         0.1414
     51 H19        -0.9370   -6.5950    0.5764 H         1 <0>         0.1510
@<TRIPOS>BOND
     1    1    2 1
     2    1   33 1
     3    1   34 1
     4    1   35 1
     5    2    7 ar
     6    2    3 ar
     7    3    4 ar
     8    3   36 1
     9    4    5 ar
    10    4   37 1
    11    5    6 ar
    12    5   20 1
    13    6    7 ar
    14    6   38 1
    15    7    8 1
    16    8   13 ar
    17    8    9 ar
    18    9   10 ar
    19    9   39 1
    20   10   11 ar
    21   10   40 1
    22   11   17 ar
    23   11   12 ar
    24   12   13 ar
    25   12   14 ar
    26   13   41 1
    27   14   15 ar
    28   14   42 1
    29   15   16 ar
    30   16   17 ar
    31   16   18 1
    32   18   19 1
    33   18   43 1
    34   19   44 1
    35   19   45 1
    36   19   46 1
    37   20   21 2
    38   20   22 am
    39   22   23 1
    40   22   47 1
    41   23   28 ar
    42   23   24 ar
    43   24   25 ar
    44   24   48 1
    45   25   26 ar
    46   25   49 1
    47   26   27 ar
    48   26   50 1
    49   27   28 ar
    50   27   29 1
    51   28   51 1
    52   29   30 1
    53   29   31 1
    54   29   32 1
@<TRIPOS>MOLECULE
CHEMBL212181
   58    62     0     0     0
SMALL
USER_CHARGES

@<TRIPOS>ATOM
      1 C1          0.0307    1.5035    0.0088 C.3       1 <0>        -0.1270
      2 C2          0.0391   -0.0035    0.0008 C.ar      1 <0>        -0.0380
      3 C3          0.0395   -0.6862   -1.2002 C.ar      1 <0>        -0.1228
      4 C4          0.0472   -2.0662   -1.2163 C.ar      1 <0>        -0.0787
      5 C5          0.0541   -2.7807   -0.0161 C.ar      1 <0>        -0.1439
      6 C6          0.0537   -2.0964    1.1980 C.ar      1 <0>        -0.0377
      7 C7          0.0522   -0.7052    1.2058 C.ar      1 <0>        -0.0519
      8 C8          0.0583    0.0307    2.4941 C.ar      1 <0>        -0.0763
      9 C9          0.9846    1.0651    2.7005 C.ar      1 <0>        -0.0508
     10 C10         1.0120    1.7560    3.8710 C.ar      1 <0>        -0.1201
     11 C11         0.1046    1.4370    4.8935 C.ar      1 <0>         0.2183
     12 C12        -0.8360    0.3928    4.6947 C.ar      1 <0>        -0.2141
     13 C13        -0.8526   -0.3044    3.4800 C.ar      1 <0>        -0.0355
     14 C14        -1.7347    0.0941    5.7365 C.ar      1 <0>         0.2450
     15 N1         -1.6631    0.7960    6.8481 N.ar      1 <0>        -0.5579
     16 C15        -0.7674    1.7695    7.0006 C.ar      1 <0>         0.5759
     17 N2          0.0987    2.0934    6.0602 N.ar      1 <0>        -0.5739
     18 N3         -0.7445    2.4692    8.1934 N.pl3     1 <0>        -0.6661
     19 C16        -1.6935    2.1336    9.2578 C.3       1 <0>         0.0937
     20 C17        -1.1539    2.0587   10.6876 C.3       1 <0>        -0.1947
     21 C18        -2.0419    3.2310   10.2655 C.3       1 <0>        -0.1902
     22 C19         0.0613   -4.2589   -0.0337 C.2       1 <0>         0.5636
     23 O1          0.0673   -4.8792    1.0117 O.2       1 <0>        -0.5104
     24 N4          0.0613   -4.9189   -1.2088 N.am      1 <0>        -0.6648
     25 C20         0.1847   -6.3117   -1.2285 C.ar      1 <0>         0.1480
     26 C21         0.8044   -6.9706   -0.1742 C.ar      1 <0>        -0.0949
     27 C22         0.9243   -8.3461   -0.1966 C.ar      1 <0>        -0.1031
     28 C23         0.4282   -9.0677   -1.2671 C.ar      1 <0>        -0.0855
     29 C24        -0.1891   -8.4150   -2.3181 C.ar      1 <0>        -0.1663
     30 C25        -0.3170   -7.0397   -2.2994 C.ar      1 <0>        -0.0649
     31 C26        -0.9951   -6.3296   -3.4427 C.3       1 <0>        -0.1390
     32 C27        -0.7282   -9.2053   -3.4825 C.3       1 <0>         0.5116
     33 F1         -0.4873  -10.5674   -3.2730 F         1 <0>        -0.1747
     34 F2         -2.1055   -8.9875   -3.5962 F         1 <0>        -0.1744
     35 F3         -0.0924   -8.7948   -4.6590 F         1 <0>        -0.1748
     36 H1          1.0563    1.8726    0.0029 H         1 <0>         0.0796
     37 H2         -0.4919    1.8686   -0.8754 H         1 <0>         0.0728
     38 H3         -0.4783    1.8593    0.9045 H         1 <0>         0.0758
     39 H4          0.0335   -0.1376   -2.1305 H         1 <0>         0.1349
     40 H5          0.0475   -2.5945   -2.1583 H         1 <0>         0.1263
     41 H6          0.0591   -2.6439    2.1290 H         1 <0>         0.1409
     42 H7          1.6859    1.3155    1.9182 H         1 <0>         0.1344
     43 H8          1.7312    2.5489    4.0142 H         1 <0>         0.1399
     44 H9         -1.5668   -1.0978    3.3160 H         1 <0>         0.1368
     45 H10        -2.4664   -0.6926    5.6263 H         1 <0>         0.1796
     46 H11        -0.1001    3.1822    8.3252 H         1 <0>         0.4157
     47 H12        -2.4836    1.4358    8.9805 H         1 <0>         0.1440
     48 H13        -1.5889    1.3113   11.3511 H         1 <0>         0.1044
     49 H14        -0.0929    2.2591   10.8362 H         1 <0>         0.0967
     50 H15        -1.5650    4.2026   10.1364 H         1 <0>         0.0974
     51 H16        -3.0610    3.2548   10.6514 H         1 <0>         0.1059
     52 H17        -0.0244   -4.4277   -2.0409 H         1 <0>         0.4129
     53 H18         1.1923   -6.4077    0.6618 H         1 <0>         0.1555
     54 H19         1.4063   -8.8589    0.6226 H         1 <0>         0.1402
     55 H20         0.5235  -10.1434   -1.2823 H         1 <0>         0.1407
     56 H21        -0.2551   -6.0719   -4.2004 H         1 <0>         0.0847
     57 H22        -1.7501   -6.9831   -3.8797 H         1 <0>         0.0836
     58 H23        -1.4704   -5.4203   -3.0749 H         1 <0>         0.0737
@<TRIPOS>BOND
     1    1    2 1
     2    1   36 1
     3    1   37 1
     4    1   38 1
     5    2    7 ar
     6    2    3 ar
     7    3    4 ar
     8    3   39 1
     9    4    5 ar
    10    4   40 1
    11    5    6 ar
    12    5   22 1
    13    6    7 ar
    14    6   41 1
    15    7    8 1
    16    8   13 ar
    17    8    9 ar
    18    9   10 ar
    19    9   42 1
    20   10   11 ar
    21   10   43 1
    22   11   17 ar
    23   11   12 ar
    24   12   13 ar
    25   12   14 ar
    26   13   44 1
    27   14   15 ar
    28   14   45 1
    29   15   16 ar
    30   16   17 ar
    31   16   18 1
    32   18   19 1
    33   18   46 1
    34   19   21 1
    35   19   20 1
    36   19   47 1
    37   20   21 1
    38   20   48 1
    39   20   49 1
    40   21   50 1
    41   21   51 1
    42   22   23 2
    43   22   24 am
    44   24   25 1
    45   24   52 1
    46   25   30 ar
    47   25   26 ar
    48   26   27 ar
    49   26   53 1
    50   27   28 ar
    51   27   54 1
    52   28   29 ar
    53   28   55 1
    54   29   30 ar
    55   29   32 1
    56   30   31 1
    57   31   56 1
    58   31   57 1
    59   31   58 1
    60   32   33 1
    61   32   34 1
    62   32   35 1
@<TRIPOS>MOLECULE
CHEMBL1079846
   61    65     0     0     0
SMALL
USER_CHARGES

@<TRIPOS>ATOM
      1 C1         -0.9055    1.1491   -0.2802 C.3       1 <0>         0.0257
      2 O1         -0.5210   -0.1918    0.0298 O.3       1 <0>        -0.3159
      3 C2         -1.0774   -0.7535    1.1362 C.ar      1 <0>         0.1287
      4 C3         -1.9778   -0.0321    1.9031 C.ar      1 <0>        -0.1872
      5 C4         -2.5426   -0.6044    3.0277 C.ar      1 <0>        -0.0505
      6 C5         -2.2111   -1.8968    3.3909 C.ar      1 <0>        -0.1972
      7 C6         -1.3133   -2.6229    2.6314 C.ar      1 <0>        -0.0536
      8 C7         -0.7477   -2.0575    1.4980 C.ar      1 <0>         0.1392
      9 N1          0.1578   -2.7943    0.7225 N.am      1 <0>        -0.6678
     10 C8          0.1729   -4.1398    0.8003 C.2       1 <0>         0.7061
     11 O2         -0.6625   -4.7195    1.4670 O.2       1 <0>        -0.5515
     12 N2          1.1139   -4.8426    0.1393 N.am      1 <0>        -0.6778
     13 C9          1.0635   -6.2411    0.1278 C.ar      1 <0>         0.1585
     14 C10        -0.1641   -6.8924    0.1289 C.ar      1 <0>        -0.1058
     15 C11        -0.2180   -8.2732    0.1181 C.ar      1 <0>        -0.0976
     16 C12         0.9474   -9.0136    0.1057 C.ar      1 <0>        -0.1160
     17 C13         2.1831   -8.3688    0.1041 C.ar      1 <0>        -0.0183
     18 C14         2.2382   -6.9771    0.1096 C.ar      1 <0>        -0.1009
     19 C15         3.4362   -9.1627    0.0913 C.2       1 <0>         0.1766
     20 C16         3.3674  -10.5198    0.0757 C.2       1 <0>        -0.0593
     21 N3          4.5187  -11.2598    0.0639 N.pl3     1 <0>        -0.3265
     22 C17         4.7743  -12.5966    0.0476 C.2       1 <0>        -0.0632
     23 C18         6.1205  -12.7450    0.0422 C.2       1 <0>         0.0222
     24 N4          6.6810  -11.5350    0.0547 N.2       1 <0>        -0.4594
     25 C19         5.7304  -10.6168    0.0680 C.2       1 <0>         0.1322
     26 C20         5.7540   -9.1984    0.0844 C.2       1 <0>         0.4928
     27 N5          4.6216   -8.5274    0.0899 N.2       1 <0>        -0.5437
     28 N6          6.9636   -8.5224    0.0889 N.pl3     1 <0>        -0.6870
     29 C21         6.9841   -7.0577    0.1059 C.3       1 <0>         0.1725
     30 C22         8.4118   -6.5752    0.1075 C.ar      1 <0>        -0.0692
     31 C23         9.0893   -6.3673    1.2992 C.ar      1 <0>        -0.1520
     32 C24        10.3979   -5.9244    1.2614 C.ar      1 <0>         0.0997
     33 N7         11.0011   -5.6997    0.1105 N.ar      1 <0>        -0.4779
     34 C25        10.3878   -5.8866   -1.0419 C.ar      1 <0>         0.0994
     35 C26         9.0808   -6.3342   -1.0827 C.ar      1 <0>        -0.1522
     36 C27        -2.8298   -2.5148    4.6182 C.3       1 <0>         0.5134
     37 F1         -3.6978   -1.5950    5.2164 F         1 <0>        -0.1779
     38 F2         -3.5442   -3.6610    4.2535 F         1 <0>        -0.1731
     39 F3         -1.8219   -2.8621    5.5241 F         1 <0>        -0.1762
     40 H1         -0.3905    1.4751   -1.1838 H         1 <0>         0.1058
     41 H2         -1.9828    1.1901   -0.4411 H         1 <0>         0.0612
     42 H3         -0.6366    1.8049    0.5479 H         1 <0>         0.0612
     43 H4         -2.2383    0.9778    1.6226 H         1 <0>         0.1460
     44 H5         -3.2443   -0.0405    3.6244 H         1 <0>         0.1439
     45 H6         -1.0559   -3.6320    2.9176 H         1 <0>         0.1730
     46 H7          0.7737   -2.3359    0.1296 H         1 <0>         0.4167
     47 H8          1.8261   -4.3791   -0.3286 H         1 <0>         0.4110
     48 H9         -1.0786   -6.3179    0.1386 H         1 <0>         0.1389
     49 H10        -1.1745   -8.7747    0.1197 H         1 <0>         0.1330
     50 H11         0.9014  -10.0926    0.0977 H         1 <0>         0.1272
     51 H12         3.1932   -6.4728    0.1039 H         1 <0>         0.1395
     52 H13         2.4066  -11.0131    0.0730 H         1 <0>         0.1715
     53 H14         4.0414  -13.3898    0.0408 H         1 <0>         0.1900
     54 H15         6.6511  -13.6856    0.0301 H         1 <0>         0.1876
     55 H16         7.7968   -9.0191    0.0808 H         1 <0>         0.4215
     56 H17         6.4729   -6.6769   -0.7783 H         1 <0>         0.0844
     57 H18         6.4779   -6.6976    1.0015 H         1 <0>         0.0844
     58 H19         8.6006   -6.5489    2.2450 H         1 <0>         0.1379
     59 H20        10.9326   -5.7600    2.1852 H         1 <0>         0.1592
     60 H21        10.9142   -5.6915   -1.9645 H         1 <0>         0.1591
     61 H22         8.5855   -6.4901   -2.0297 H         1 <0>         0.1378
@<TRIPOS>BOND
     1    1    2 1
     2    1   40 1
     3    1   41 1
     4    1   42 1
     5    2    3 1
     6    3    8 ar
     7    3    4 ar
     8    4    5 ar
     9    4   43 1
    10    5    6 ar
    11    5   44 1
    12    6    7 ar
    13    6   36 1
    14    7    8 ar
    15    7   45 1
    16    8    9 1
    17    9   10 am
    18    9   46 1
    19   10   11 2
    20   10   12 am
    21   12   13 1
    22   12   47 1
    23   13   18 ar
    24   13   14 ar
    25   14   15 ar
    26   14   48 1
    27   15   16 ar
    28   15   49 1
    29   16   17 ar
    30   16   50 1
    31   17   18 ar
    32   17   19 1
    33   18   51 1
    34   19   27 1
    35   19   20 2
    36   20   21 1
    37   20   52 1
    38   21   25 1
    39   21   22 1
    40   22   23 2
    41   22   53 1
    42   23   24 1
    43   23   54 1
    44   24   25 2
    45   25   26 1
    46   26   27 2
    47   26   28 1
    48   28   29 1
    49   28   55 1
    50   29   30 1
    51   29   56 1
    52   29   57 1
    53   30   35 ar
    54   30   31 ar
    55   31   32 ar
    56   31   58 1
    57   32   33 ar
    58   32   59 1
    59   33   34 ar
    60   34   35 ar
    61   34   60 1
    62   35   61 1
    63   36   37 1
    64   36   38 1
    65   36   39 1
@<TRIPOS>MOLECULE
CHEMBL424323
   58    63     0     0     0
SMALL
USER_CHARGES

@<TRIPOS>ATOM
      1 C1         -0.0187    1.5258    0.0104 C.3       1 <0>        -0.1526
      2 C2          0.0021   -0.0041    0.0020 C.3       1 <0>         0.0562
      3 O1          0.6709   -0.4649   -1.1737 O.3       1 <0>        -0.3837
      4 C3          0.7457   -1.8880   -1.2798 C.3       1 <0>         0.1079
      5 C4          1.4669   -2.2599   -2.5497 C.ar      1 <0>        -0.1163
      6 C5          0.7515   -2.4357   -3.7243 C.ar      1 <0>        -0.0594
      7 C6          1.3964   -2.7758   -4.8939 C.ar      1 <0>        -0.1381
      8 C7          2.7776   -2.9456   -4.9039 C.ar      1 <0>         0.1486
      9 C8          3.4995   -2.7668   -3.7148 C.ar      1 <0>        -0.0986
     10 C9          2.8360   -2.4184   -2.5407 C.ar      1 <0>        -0.0375
     11 C10         4.9159   -3.0133   -4.0445 C.ar      1 <0>        -0.0849
     12 C11         6.0867   -2.9896   -3.3031 C.ar      1 <0>        -0.0183
     13 C12         7.3080   -3.2740   -3.9074 C.ar      1 <0>        -0.1736
     14 C13         7.3499   -3.5893   -5.2862 C.ar      1 <0>         0.0573
     15 C14         6.1754   -3.6115   -6.0203 C.ar      1 <0>        -0.1278
     16 C15         4.9555   -3.3258   -5.4162 C.ar      1 <0>         0.2001
     17 N1          3.6674   -3.2794   -5.9095 N.pl3     1 <0>        -0.4952
     18 C16         3.2948   -3.5461   -7.3010 C.3       1 <0>         0.1137
     19 C17         3.3361   -2.2413   -8.0990 C.3       1 <0>        -0.1428
     20 C18         2.9470   -2.5197   -9.5522 C.3       1 <0>         0.0799
     21 O2          2.9855   -1.3010  -10.2975 O.3       1 <0>        -0.5718
     22 C19         6.5311   -3.9745   -7.4422 C.3       1 <0>        -0.0353
     23 C20         8.0282   -4.1609   -7.4606 C.ar      1 <0>        -0.0846
     24 C21         8.4927   -3.9267   -6.1679 C.ar      1 <0>        -0.0718
     25 C22         9.8598   -4.0338   -5.9023 C.ar      1 <0>        -0.0799
     26 C23        10.7338   -4.3685   -6.9157 C.ar      1 <0>        -0.1263
     27 C24        10.2625   -4.5985   -8.1956 C.ar      1 <0>        -0.1026
     28 C25         8.9090   -4.4947   -8.4664 C.ar      1 <0>        -0.1099
     29 C26         8.3650   -3.1743   -2.8888 C.2       1 <0>         0.5678
     30 O3          9.5483   -3.3641   -3.0952 O.2       1 <0>        -0.5242
     31 N2          7.8371   -2.8427   -1.6980 N.am      1 <0>        -0.7240
     32 C27         6.3848   -2.7004   -1.8524 C.3       1 <0>         0.1402
     33 H1          1.0039    1.9031    0.0027 H         1 <0>         0.0630
     34 H2         -0.5459    1.8868   -0.8726 H         1 <0>         0.0630
     35 H3         -0.5289    1.8773    0.9072 H         1 <0>         0.0713
     36 H4          0.5293   -0.3651    0.8851 H         1 <0>         0.0487
     37 H5         -1.0205   -0.3814    0.0098 H         1 <0>         0.0487
     38 H6          1.2883   -2.2882   -0.4233 H         1 <0>         0.0580
     39 H7         -0.2614   -2.3044   -1.2986 H         1 <0>         0.0589
     40 H8         -0.3206   -2.3053   -3.7226 H         1 <0>         0.1317
     41 H9          0.8294   -2.9110   -5.8031 H         1 <0>         0.1268
     42 H10         3.3919   -2.2767   -1.6257 H         1 <0>         0.1275
     43 H11         3.9958   -4.2594   -7.7345 H         1 <0>         0.0932
     44 H12         2.2873   -3.9607   -7.3344 H         1 <0>         0.0946
     45 H13         2.6351   -1.5280   -7.6655 H         1 <0>         0.0797
     46 H14         4.3436   -1.8266   -8.0656 H         1 <0>         0.0783
     47 H15         3.6480   -3.2330   -9.9858 H         1 <0>         0.0496
     48 H16         1.9395   -2.9343   -9.5856 H         1 <0>         0.0496
     49 H17         2.7495   -1.4025  -11.2298 H         1 <0>         0.3845
     50 H18         6.0337   -4.9011   -7.7289 H         1 <0>         0.0982
     51 H19         6.2446   -3.1690   -8.1183 H         1 <0>         0.0997
     52 H20        10.2323   -3.8544   -4.9045 H         1 <0>         0.1517
     53 H21        11.7906   -4.4510   -6.7089 H         1 <0>         0.1276
     54 H22        10.9517   -4.8595   -8.9850 H         1 <0>         0.1277
     55 H23         8.5431   -4.6754   -9.4663 H         1 <0>         0.1249
     56 H24         8.3334   -2.7185   -0.8738 H         1 <0>         0.4270
     57 H25         6.0789   -1.6846   -1.6021 H         1 <0>         0.1021
     58 H26         5.8679   -3.4164   -1.2135 H         1 <0>         0.1015
@<TRIPOS>BOND
     1    1    2 1
     2    1   33 1
     3    1   34 1
     4    1   35 1
     5    2    3 1
     6    2   36 1
     7    2   37 1
     8    3    4 1
     9    4    5 1
    10    4   38 1
    11    4   39 1
    12    5   10 ar
    13    5    6 ar
    14    6    7 ar
    15    6   40 1
    16    7    8 ar
    17    7   41 1
    18    8   17 1
    19    8    9 ar
    20    9   10 ar
    21    9   11 1
    22   10   42 1
    23   11   16 ar
    24   11   12 ar
    25   12   32 1
    26   12   13 ar
    27   13   14 ar
    28   13   29 1
    29   14   24 1
    30   14   15 ar
    31   15   16 ar
    32   15   22 1
    33   16   17 1
    34   17   18 1
    35   18   19 1
    36   18   43 1
    37   18   44 1
    38   19   20 1
    39   19   45 1
    40   19   46 1
    41   20   21 1
    42   20   47 1
    43   20   48 1
    44   21   49 1
    45   22   23 1
    46   22   50 1
    47   22   51 1
    48   23   28 ar
    49   23   24 ar
    50   24   25 ar
    51   25   26 ar
    52   25   52 1
    53   26   27 ar
    54   26   53 1
    55   27   28 ar
    56   27   54 1
    57   28   55 1
    58   29   30 2
    59   29   31 am
    60   31   32 1
    61   31   56 1
    62   32   57 1
    63   32   58 1
@<TRIPOS>MOLECULE
CHEMBL325003
   49    53     0     0     0
SMALL
USER_CHARGES

@<TRIPOS>ATOM
      1 C1         -0.0164    1.3606    0.0095 C.ar      1 <0>        -0.1491
      2 C2          1.1695    2.0826    0.0021 C.ar      1 <0>        -0.0499
      3 C3          2.3855    1.4349   -0.0134 C.ar      1 <0>        -0.1671
      4 C4          2.4309    0.0432   -0.0213 C.ar      1 <0>         0.1961
      5 C5          1.2276   -0.6864   -0.0132 C.ar      1 <0>        -0.1397
      6 C6          0.0021   -0.0041    0.0020 C.ar      1 <0>        -0.0492
      7 C7          1.2573   -2.1036   -0.0210 C.2       1 <0>         0.0166
      8 C8          2.4757   -2.7493   -0.0366 C.2       1 <0>        -0.1505
      9 C9          3.7089   -1.9541   -0.0446 C.2       1 <0>         0.5467
     10 N1          3.6467   -0.6094   -0.0364 N.am      1 <0>        -0.6265
     11 O1          4.7915   -2.5121   -0.0583 O.2       1 <0>        -0.5171
     12 C10         2.5386   -4.2238   -0.0445 C.2       1 <0>         0.1383
     13 C11         3.0455   -4.9914    0.9541 C.2       1 <0>        -0.1470
     14 C12         2.9079   -6.3841    0.5300 C.ar      1 <0>        -0.1185
     15 C13         3.2395   -7.6068    1.1132 C.ar      1 <0>         0.0170
     16 C14         2.9688   -8.7865    0.4270 C.ar      1 <0>        -0.1871
     17 C15         2.3680   -8.7403   -0.8390 C.ar      1 <0>        -0.0703
     18 C16         2.0426   -7.5465   -1.4120 C.ar      1 <0>        -0.1299
     19 C17         2.3041   -6.3521   -0.7439 C.ar      1 <0>         0.1336
     20 N2          2.0869   -5.0323   -1.0629 N.pl3     1 <0>        -0.5795
     21 H1          1.6785   -4.7176   -1.8846 H         1 <0>         0.4193
     22 C18         3.3149  -10.0880    1.0322 C.2       1 <0>         0.5770
     23 O2          3.8362  -10.1286    2.1298 O.2       1 <0>        -0.5231
     24 N3          3.0529  -11.2311    0.3679 N.am      1 <0>        -0.7357
     25 C19         3.3963  -12.5225    0.9685 C.3       1 <0>         0.1295
     26 C20         4.8379  -12.9269    0.5834 C.3       1 <0>        -0.1631
     27 C21         4.7174  -14.4530    0.3442 C.3       1 <0>        -0.0028
     28 N4          3.3870  -14.5918   -0.3016 N.4       1 <0>        -0.5162
     29 C22         2.4994  -13.6346    0.3938 C.3       1 <0>        -0.0159
     30 H2         -0.9614    1.8832    0.0259 H         1 <0>         0.1349
     31 H3          1.1386    3.1621    0.0081 H         1 <0>         0.1375
     32 H4          3.3022    2.0058   -0.0198 H         1 <0>         0.1382
     33 H5         -0.9252   -0.5577    0.0082 H         1 <0>         0.1378
     34 H6          0.3378   -2.6701   -0.0146 H         1 <0>         0.1460
     35 H7          3.4697   -4.6406    1.8833 H         1 <0>         0.1546
     36 H8          3.7025   -7.6377    2.0884 H         1 <0>         0.1406
     37 H9          2.1611   -9.6600   -1.3661 H         1 <0>         0.1223
     38 H10         1.5803   -7.5266   -2.3878 H         1 <0>         0.1290
     39 H11         2.6370  -11.1987   -0.5078 H         1 <0>         0.4040
     40 H12         3.2920  -12.4746    2.0524 H         1 <0>         0.1324
     41 H13         5.1511  -12.4172   -0.3278 H         1 <0>         0.1033
     42 H14         5.5284  -12.7179    1.4004 H         1 <0>         0.1245
     43 H15         5.5066  -14.8015   -0.3219 H         1 <0>         0.1415
     44 H16         4.7442  -14.9939    1.2901 H         1 <0>         0.1404
     45 H17         3.4499  -14.3593   -1.2814 H         1 <0>         0.4321
     46 H18         1.9696  -14.1390    1.2018 H         1 <0>         0.1481
     47 H19         1.7865  -13.2089   -0.3124 H         1 <0>         0.1387
     48 H20         4.4674   -0.0923   -0.0415 H         1 <0>         0.4213
     49 H21         3.0413  -15.5328   -0.1874 H         1 <0>         0.4369
@<TRIPOS>BOND
     1    1    6 ar
     2    1    2 ar
     3    1   30 1
     4    2    3 ar
     5    2   31 1
     6    3    4 ar
     7    3   32 1
     8    4   10 1
     9    4    5 ar
    10    5    6 ar
    11    5    7 1
    12    6   33 1
    13    7    8 2
    14    7   34 1
    15    8    9 1
    16    8   12 1
    17    9   10 am
    18    9   11 2
    19   10   48 1
    20   12   20 1
    21   12   13 2
    22   13   14 1
    23   13   35 1
    24   14   19 ar
    25   14   15 ar
    26   15   16 ar
    27   15   36 1
    28   16   17 ar
    29   16   22 1
    30   17   18 ar
    31   17   37 1
    32   18   19 ar
    33   18   38 1
    34   19   20 1
    35   20   21 1
    36   22   23 2
    37   22   24 am
    38   24   25 1
    39   24   39 1
    40   25   29 1
    41   25   26 1
    42   25   40 1
    43   26   27 1
    44   26   41 1
    45   26   42 1
    46   27   28 1
    47   27   43 1
    48   27   44 1
    49   28   29 1
    50   28   45 1
    51   28   49 1
    52   29   46 1
    53   29   47 1
@<TRIPOS>MOLECULE
CHEMBL325003__1
   49    53     0     0     0
SMALL
USER_CHARGES

@<TRIPOS>ATOM
      1 C1         -0.0164    1.3606    0.0095 C.ar      1 <0>        -0.1491
      2 C2          1.1695    2.0826    0.0021 C.ar      1 <0>        -0.0499
      3 C3          2.3855    1.4349   -0.0134 C.ar      1 <0>        -0.1671
      4 C4          2.4309    0.0432   -0.0213 C.ar      1 <0>         0.1962
      5 C5          1.2276   -0.6864   -0.0132 C.ar      1 <0>        -0.1398
      6 C6          0.0021   -0.0041    0.0020 C.ar      1 <0>        -0.0493
      7 C7          1.2573   -2.1036   -0.0210 C.2       1 <0>         0.0165
      8 C8          2.4757   -2.7493   -0.0366 C.2       1 <0>        -0.1503
      9 C9          3.7089   -1.9541   -0.0446 C.2       1 <0>         0.5466
     10 N1          3.6467   -0.6094   -0.0364 N.am      1 <0>        -0.6265
     11 O1          4.7915   -2.5121   -0.0583 O.2       1 <0>        -0.5167
     12 C10         2.5386   -4.2238   -0.0445 C.2       1 <0>         0.1383
     13 C11         3.0455   -4.9914    0.9541 C.2       1 <0>        -0.1469
     14 C12         2.9079   -6.3841    0.5300 C.ar      1 <0>        -0.1185
     15 C13         3.2395   -7.6068    1.1132 C.ar      1 <0>         0.0170
     16 C14         2.9688   -8.7865    0.4270 C.ar      1 <0>        -0.1871
     17 C15         2.3680   -8.7403   -0.8390 C.ar      1 <0>        -0.0703
     18 C16         2.0426   -7.5465   -1.4120 C.ar      1 <0>        -0.1299
     19 C17         2.3041   -6.3521   -0.7439 C.ar      1 <0>         0.1336
     20 N2          2.0869   -5.0323   -1.0629 N.pl3     1 <0>        -0.5795
     21 H1          1.6785   -4.7176   -1.8846 H         1 <0>         0.4193
     22 C18         3.3149  -10.0880    1.0322 C.2       1 <0>         0.5765
     23 O2          3.8362  -10.1286    2.1298 O.2       1 <0>        -0.5227
     24 N3          3.0529  -11.2311    0.3679 N.am      1 <0>        -0.7354
     25 C19         3.3963  -12.5225    0.9685 C.3       1 <0>         0.1289
     26 C20         2.2193  -13.0469    1.8227 C.3       1 <0>        -0.1611
     27 C21         1.4966  -14.0193    0.8569 C.3       1 <0>        -0.0061
     28 N4          2.6154  -14.6583    0.1178 N.4       1 <0>        -0.5156
     29 C22         3.6019  -13.5840   -0.1280 C.3       1 <0>        -0.0154
     30 H2         -0.9614    1.8832    0.0259 H         1 <0>         0.1348
     31 H3          1.1386    3.1621    0.0081 H         1 <0>         0.1375
     32 H4          3.3022    2.0058   -0.0198 H         1 <0>         0.1382
     33 H5         -0.9252   -0.5577    0.0082 H         1 <0>         0.1377
     34 H6          0.3378   -2.6701   -0.0146 H         1 <0>         0.1459
     35 H7          3.4697   -4.6406    1.8833 H         1 <0>         0.1546
     36 H8          3.7025   -7.6377    2.0884 H         1 <0>         0.1406
     37 H9          2.1611   -9.6600   -1.3661 H         1 <0>         0.1222
     38 H10         1.5803   -7.5266   -2.3878 H         1 <0>         0.1289
     39 H11         2.6370  -11.1987   -0.5078 H         1 <0>         0.4035
     40 H12         4.2954  -12.4286    1.5775 H         1 <0>         0.1329
     41 H13         2.5867  -13.5777    2.7010 H         1 <0>         0.1099
     42 H14         1.5590  -12.2296    2.1127 H         1 <0>         0.1218
     43 H15         0.9289  -14.7642    1.4145 H         1 <0>         0.1418
     44 H16         0.8475  -13.4714    0.1738 H         1 <0>         0.1353
     45 H17         3.0291  -15.3893    0.6768 H         1 <0>         0.4353
     46 H18         3.4322  -13.1416   -1.1096 H         1 <0>         0.1381
     47 H19         4.6127  -13.9876   -0.0693 H         1 <0>         0.1487
     48 H20         4.4674   -0.0923   -0.0415 H         1 <0>         0.4214
     49 H21         2.2842  -15.0336   -0.7583 H         1 <0>         0.4356
@<TRIPOS>BOND
     1    1    6 ar
     2    1    2 ar
     3    1   30 1
     4    2    3 ar
     5    2   31 1
     6    3    4 ar
     7    3   32 1
     8    4   10 1
     9    4    5 ar
    10    5    6 ar
    11    5    7 1
    12    6   33 1
    13    7    8 2
    14    7   34 1
    15    8    9 1
    16    8   12 1
    17    9   10 am
    18    9   11 2
    19   10   48 1
    20   12   20 1
    21   12   13 2
    22   13   14 1
    23   13   35 1
    24   14   19 ar
    25   14   15 ar
    26   15   16 ar
    27   15   36 1
    28   16   17 ar
    29   16   22 1
    30   17   18 ar
    31   17   37 1
    32   18   19 ar
    33   18   38 1
    34   19   20 1
    35   20   21 1
    36   22   23 2
    37   22   24 am
    38   24   25 1
    39   24   39 1
    40   25   29 1
    41   25   26 1
    42   25   40 1
    43   26   27 1
    44   26   41 1
    45   26   42 1
    46   27   28 1
    47   27   43 1
    48   27   44 1
    49   28   29 1
    50   28   45 1
    51   28   49 1
    52   29   46 1
    53   29   47 1
@<TRIPOS>MOLECULE
CHEMBL210003
   46    49     0     0     0
SMALL
USER_CHARGES

@<TRIPOS>ATOM
      1 C1          1.3547   -5.9897   -0.5691 C.3       1 <0>        -0.1464
      2 C2          1.0819   -5.1355   -1.8088 C.3       1 <0>        -0.0874
      3 C3          1.5316   -3.7201   -1.5525 C.ar      1 <0>        -0.0608
      4 C4          0.6516   -2.8042   -1.0052 C.ar      1 <0>        -0.1311
      5 C5          1.0602   -1.5046   -0.7690 C.ar      1 <0>        -0.0957
      6 C6          2.3493   -1.1171   -1.0791 C.ar      1 <0>        -0.1495
      7 C7          3.2352   -2.0344   -1.6282 C.ar      1 <0>         0.1604
      8 C8          2.8234   -3.3407   -1.8591 C.ar      1 <0>        -0.1167
      9 N1          4.5419   -1.6451   -1.9434 N.am      1 <0>        -0.6789
     10 C9          5.1702   -2.1903   -3.0038 C.2       1 <0>         0.7040
     11 O1          4.5706   -2.9473   -3.7425 O.2       1 <0>        -0.5479
     12 N2          6.4632   -1.8964   -3.2453 N.am      1 <0>        -0.6820
     13 C10         7.0844   -2.3757   -4.4013 C.ar      1 <0>         0.1910
     14 C11         6.3551   -2.5067   -5.5776 C.ar      1 <0>        -0.1140
     15 C12         6.9656   -2.9792   -6.7192 C.ar      1 <0>        -0.0528
     16 C13         8.3165   -3.3256   -6.6939 C.ar      1 <0>        -0.0652
     17 C14         9.0461   -3.1928   -5.5126 C.ar      1 <0>        -0.0828
     18 C15         8.4322   -2.7153   -4.3749 C.ar      1 <0>        -0.1413
     19 C16         8.9753   -3.8344   -7.9200 C.2       1 <0>         0.2080
     20 C17         9.8758   -4.9891   -8.0110 C.ar      1 <0>        -0.3591
     21 C18        10.3838   -5.9213   -7.0929 C.ar      1 <0>         0.5220
     22 N3         11.2044   -6.8675   -7.5421 N.ar      1 <0>        -0.5927
     23 C19        11.5345   -6.9306   -8.8183 C.ar      1 <0>         0.4024
     24 N4         11.0811   -6.0770   -9.7121 N.ar      1 <0>        -0.5514
     25 C20        10.2552   -5.0963   -9.3585 C.ar      1 <0>         0.3653
     26 O2          9.6441   -4.1019  -10.0244 O.3       1 <0>        -0.0721
     27 N5          8.8592   -3.3421   -9.1268 N.2       1 <0>        -0.2696
     28 N6         10.0408   -5.8579   -5.7568 N.pl3     1 <0>        -0.8206
     29 H1          2.4225   -5.9817   -0.3502 H         1 <0>         0.0543
     30 H2          0.8066   -5.5825    0.2805 H         1 <0>         0.0564
     31 H3          1.0295   -7.0134   -0.7545 H         1 <0>         0.0594
     32 H4          1.6300   -5.5426   -2.6584 H         1 <0>         0.0736
     33 H5          0.0141   -5.1434   -2.0277 H         1 <0>         0.0742
     34 H6         -0.3569   -3.1046   -0.7622 H         1 <0>         0.1238
     35 H7          0.3706   -0.7916   -0.3418 H         1 <0>         0.1279
     36 H8          2.6676   -0.1017   -0.8949 H         1 <0>         0.1251
     37 H9          3.5115   -4.0576   -2.2820 H         1 <0>         0.1344
     38 H10         4.9953   -0.9828   -1.3988 H         1 <0>         0.4097
     39 H11         6.9624   -1.3521   -2.6164 H         1 <0>         0.4126
     40 H12         5.3092   -2.2383   -5.5967 H         1 <0>         0.1477
     41 H13         6.3985   -3.0814   -7.6326 H         1 <0>         0.1380
     42 H14        10.0922   -3.4605   -5.4905 H         1 <0>         0.1388
     43 H15         8.9978   -2.6084   -3.4610 H         1 <0>         0.1400
     44 H16        12.2038   -7.7138   -9.1424 H         1 <0>         0.2186
     45 H17         9.3297   -5.2655   -5.4662 H         1 <0>         0.4158
     46 H18        10.5109   -6.4056   -5.1089 H         1 <0>         0.4145
@<TRIPOS>BOND
     1    1    2 1
     2    1   29 1
     3    1   30 1
     4    1   31 1
     5    2    3 1
     6    2   32 1
     7    2   33 1
     8    3    8 ar
     9    3    4 ar
    10    4    5 ar
    11    4   34 1
    12    5    6 ar
    13    5   35 1
    14    6    7 ar
    15    6   36 1
    16    7    8 ar
    17    7    9 1
    18    8   37 1
    19    9   10 am
    20    9   38 1
    21   10   11 2
    22   10   12 am
    23   12   13 1
    24   12   39 1
    25   13   18 ar
    26   13   14 ar
    27   14   15 ar
    28   14   40 1
    29   15   16 ar
    30   15   41 1
    31   16   17 ar
    32   16   19 1
    33   17   18 ar
    34   17   42 1
    35   18   43 1
    36   19   27 2
    37   19   20 1
    38   20   25 ar
    39   20   21 ar
    40   21   22 ar
    41   21   28 1
    42   22   23 ar
    43   23   24 ar
    44   23   44 1
    45   24   25 ar
    46   25   26 1
    47   26   27 1
    48   28   45 1
    49   28   46 1
@<TRIPOS>MOLECULE
CHEMBL394619
   46    49     0     0     0
SMALL
USER_CHARGES

@<TRIPOS>ATOM
      1 C1          0.0432    0.7497   -2.1204 C.3       1 <0>        -0.1177
      2 C2         -0.6617   -0.5218   -1.7234 C.ar      1 <0>        -0.0636
      3 C3         -1.6148   -1.0733   -2.5601 C.ar      1 <0>        -0.1302
      4 C4         -2.2634   -2.2400   -2.1997 C.ar      1 <0>        -0.0950
      5 C5         -1.9611   -2.8583   -1.0021 C.ar      1 <0>        -0.1250
      6 C6         -1.0047   -2.3071   -0.1599 C.ar      1 <0>         0.1563
      7 C7         -0.3511   -1.1379   -0.5273 C.ar      1 <0>        -0.1444
      8 N1         -0.6965   -2.9309    1.0542 N.am      1 <0>        -0.6762
      9 C8         -0.7438   -4.2742    1.1528 C.2       1 <0>         0.7046
     10 O1         -0.9671   -4.9487    0.1661 O.2       1 <0>        -0.5496
     11 N2         -0.5435   -4.8699    2.3451 N.am      1 <0>        -0.6853
     12 C9         -0.4898   -6.2660    2.4297 C.ar      1 <0>         0.1930
     13 C10         0.0457   -7.0041    1.3814 C.ar      1 <0>        -0.1228
     14 C11         0.1003   -8.3796    1.4623 C.ar      1 <0>        -0.0856
     15 C12        -0.3827   -9.0297    2.5975 C.ar      1 <0>        -0.0983
     16 C13        -0.9198   -8.2863    3.6482 C.ar      1 <0>        -0.0681
     17 C14        -0.9670   -6.9108    3.5642 C.ar      1 <0>        -0.1421
     18 C15        -0.3259  -10.5082    2.6871 C.2       1 <0>        -0.0440
     19 C16        -1.4532  -11.2299    2.8897 C.2       1 <0>        -0.1314
     20 S1         -0.8695  -12.9142    2.9197 S.3       1 <0>         0.2058
     21 C17         0.8577  -12.6157    2.6622 C.ar      1 <0>        -0.0589
     22 C18         0.9460  -11.2123    2.5524 C.ar      1 <0>        -0.1446
     23 C19         2.2472  -10.6916    2.3334 C.ar      1 <0>         0.5034
     24 N3          3.2866  -11.4945    2.2386 N.ar      1 <0>        -0.5035
     25 C20         3.1966  -12.8119    2.3379 C.ar      1 <0>         0.1284
     26 C21         1.9851  -13.4101    2.5590 C.ar      1 <0>        -0.0996
     27 N4          2.4269   -9.3200    2.2172 N.pl3     1 <0>        -0.8254
     28 H1          0.9406    0.5053   -2.6888 H         1 <0>         0.0735
     29 H2         -0.6216    1.3571   -2.7345 H         1 <0>         0.0712
     30 H3          0.3205    1.3062   -1.2251 H         1 <0>         0.0679
     31 H4         -1.8532   -0.5916   -3.4968 H         1 <0>         0.1264
     32 H5         -3.0075   -2.6680   -2.8551 H         1 <0>         0.1281
     33 H6         -2.4684   -3.7694   -0.7210 H         1 <0>         0.1337
     34 H7          0.3962   -0.7090    0.1238 H         1 <0>         0.1256
     35 H8         -0.4488   -2.3964    1.8249 H         1 <0>         0.4104
     36 H9         -0.4366   -4.3311    3.1446 H         1 <0>         0.4139
     37 H10         0.4193   -6.5002    0.5023 H         1 <0>         0.1467
     38 H11         0.5163   -8.9529    0.6470 H         1 <0>         0.1294
     39 H12        -1.2948   -8.7873    4.5284 H         1 <0>         0.1373
     40 H13        -1.3787   -6.3344    4.3795 H         1 <0>         0.1388
     41 H14        -2.4651  -10.8708    3.0059 H         1 <0>         0.2125
     42 H15         4.0862  -13.4181    2.2515 H         1 <0>         0.2141
     43 H16         1.9095  -14.4844    2.6398 H         1 <0>         0.1857
     44 H17         1.8119   -8.7115    2.6559 H         1 <0>         0.4394
     45 H18         3.1674   -8.9702    1.6975 H         1 <0>         0.4215
     46 H19         4.1607  -11.1018    2.0883 H         1 <0>         0.4436
@<TRIPOS>BOND
     1    1    2 1
     2    1   28 1
     3    1   29 1
     4    1   30 1
     5    2    7 ar
     6    2    3 ar
     7    3    4 ar
     8    3   31 1
     9    4    5 ar
    10    4   32 1
    11    5    6 ar
    12    5   33 1
    13    6    7 ar
    14    6    8 1
    15    7   34 1
    16    8    9 am
    17    8   35 1
    18    9   10 2
    19    9   11 am
    20   11   12 1
    21   11   36 1
    22   12   17 ar
    23   12   13 ar
    24   13   14 ar
    25   13   37 1
    26   14   15 ar
    27   14   38 1
    28   15   16 ar
    29   15   18 1
    30   16   17 ar
    31   16   39 1
    32   17   40 1
    33   18   22 1
    34   18   19 2
    35   19   20 1
    36   19   41 1
    37   20   21 1
    38   21   26 ar
    39   21   22 ar
    40   22   23 ar
    41   23   24 ar
    42   23   27 1
    43   24   25 ar
    44   24   46 1
    45   25   26 ar
    46   25   42 1
    47   26   43 1
    48   27   44 1
    49   27   45 1
@<TRIPOS>MOLECULE
CHEMBL394619__1
   45    48     0     0     0
SMALL
USER_CHARGES

@<TRIPOS>ATOM
      1 C1          0.0418    0.7500   -2.1190 C.3       1 <0>        -0.1155
      2 C2         -0.6630   -0.5215   -1.7217 C.ar      1 <0>        -0.0662
      3 C3         -1.6165   -1.0730   -2.5581 C.ar      1 <0>        -0.1346
      4 C4         -2.2651   -2.2396   -2.1975 C.ar      1 <0>        -0.0952
      5 C5         -1.9622   -2.8580   -1.0000 C.ar      1 <0>        -0.1251
      6 C6         -1.0055   -2.3069   -0.1582 C.ar      1 <0>         0.1636
      7 C7         -0.3520   -1.1377   -0.5257 C.ar      1 <0>        -0.1469
      8 N1         -0.6967   -2.9307    1.0558 N.am      1 <0>        -0.6808
      9 C8         -0.7440   -4.2740    1.1543 C.2       1 <0>         0.7036
     10 O1         -0.9678   -4.9485    0.1677 O.2       1 <0>        -0.5495
     11 N2         -0.5433   -4.8698    2.3465 N.am      1 <0>        -0.6822
     12 C9         -0.4897   -6.2659    2.4310 C.ar      1 <0>         0.1719
     13 C10         0.0455   -7.0040    1.3825 C.ar      1 <0>        -0.1222
     14 C11         0.1000   -8.3794    1.4632 C.ar      1 <0>        -0.0732
     15 C12        -0.3826   -9.0296    2.5987 C.ar      1 <0>        -0.0660
     16 C13        -0.9191   -8.2863    3.6496 C.ar      1 <0>        -0.0794
     17 C14        -0.9663   -6.9108    3.5657 C.ar      1 <0>        -0.1454
     18 C15        -0.3258  -10.5081    2.6882 C.2       1 <0>        -0.0426
     19 C16        -1.4530  -11.2298    2.8911 C.2       1 <0>        -0.1600
     20 S1         -0.8693  -12.9141    2.9208 S.3       1 <0>         0.0631
     21 C17         0.8577  -12.6157    2.6627 C.ar      1 <0>        -0.0503
     22 C18         0.9461  -11.2123    2.5529 C.ar      1 <0>        -0.1858
     23 C19         2.2472  -10.6916    2.3334 C.ar      1 <0>         0.4578
     24 N3          3.2865  -11.4945    2.2381 N.ar      1 <0>        -0.5500
     25 C20         3.1965  -12.8119    2.3375 C.ar      1 <0>         0.1642
     26 C21         1.9851  -13.4101    2.5590 C.ar      1 <0>        -0.1847
     27 N4          2.4269   -9.3200    2.2172 N.pl3     1 <0>        -0.8519
     28 H1          0.9389    0.5056   -2.6877 H         1 <0>         0.0724
     29 H2         -0.6233    1.3575   -2.7327 H         1 <0>         0.0690
     30 H3          0.3194    1.3064   -1.2238 H         1 <0>         0.0666
     31 H4         -1.8553   -0.5911   -3.4947 H         1 <0>         0.1240
     32 H5         -3.0094   -2.6676   -2.8525 H         1 <0>         0.1267
     33 H6         -2.4694   -3.7691   -0.7187 H         1 <0>         0.1351
     34 H7          0.3956   -0.7088    0.1250 H         1 <0>         0.1248
     35 H8         -0.4487   -2.3963    1.8264 H         1 <0>         0.4088
     36 H9         -0.4361   -4.3310    3.1460 H         1 <0>         0.4098
     37 H10         0.4187   -6.5000    0.5032 H         1 <0>         0.1405
     38 H11         0.5157   -8.9527    0.6478 H         1 <0>         0.1301
     39 H12        -1.2938   -8.7873    4.5299 H         1 <0>         0.1315
     40 H13        -1.3777   -6.3344    4.3812 H         1 <0>         0.1307
     41 H14        -2.4649  -10.8707    3.0077 H         1 <0>         0.1918
     42 H15         4.0861  -13.4182    2.2506 H         1 <0>         0.1670
     43 H16         1.9095  -14.4844    2.6397 H         1 <0>         0.1416
     44 H17         1.8119   -8.7115    2.6559 H         1 <0>         0.4101
     45 H18         3.1674   -8.9702    1.6975 H         1 <0>         0.4030
@<TRIPOS>BOND
     1    1    2 1
     2    1   28 1
     3    1   29 1
     4    1   30 1
     5    2    7 ar
     6    2    3 ar
     7    3    4 ar
     8    3   31 1
     9    4    5 ar
    10    4   32 1
    11    5    6 ar
    12    5   33 1
    13    6    7 ar
    14    6    8 1
    15    7   34 1
    16    8    9 am
    17    8   35 1
    18    9   10 2
    19    9   11 am
    20   11   12 1
    21   11   36 1
    22   12   17 ar
    23   12   13 ar
    24   13   14 ar
    25   13   37 1
    26   14   15 ar
    27   14   38 1
    28   15   16 ar
    29   15   18 1
    30   16   17 ar
    31   16   39 1
    32   17   40 1
    33   18   22 1
    34   18   19 2
    35   19   20 1
    36   19   41 1
    37   20   21 1
    38   21   26 ar
    39   21   22 ar
    40   22   23 ar
    41   23   24 ar
    42   23   27 1
    43   24   25 ar
    44   25   26 ar
    45   25   42 1
    46   26   43 1
    47   27   44 1
    48   27   45 1
@<TRIPOS>MOLECULE
CHEMBL398460
   36    39     0     0     0
SMALL
USER_CHARGES

@<TRIPOS>ATOM
      1 C1         -0.5577    1.4374   -0.0319 C.3       1 <0>         0.0751
      2 N1         -0.2850   -0.0020   -0.0343 N.pl3     1 <0>        -0.4644
      3 C2         -0.3312   -0.7844   -1.1244 C.2       1 <0>         0.2031
      4 C3         -0.0196   -2.0901   -0.7719 C.2       1 <0>        -0.2085
      5 C4          0.2370   -2.0700    0.6835 C.ar      1 <0>        -0.0079
      6 C5          0.0606   -0.7373    1.0849 C.ar      1 <0>         0.0480
      7 C6          0.2415   -0.3974    2.4214 C.ar      1 <0>        -0.0591
      8 C7          0.5944   -1.3646    3.3378 C.ar      1 <0>        -0.1962
      9 C8          0.7726   -2.6848    2.9398 C.ar      1 <0>         0.1392
     10 C9          0.5882   -3.0418    1.6147 C.ar      1 <0>        -0.0966
     11 Br1         0.8318   -4.8364    1.0707 Br        1 <0>        -0.0332
     12 O1          1.1213   -3.6284    3.8548 O.3       1 <0>        -0.3039
     13 C10         1.2874   -3.1923    5.2054 C.3       1 <0>         0.0276
     14 C11         0.0391   -3.2051   -1.6253 C.2       1 <0>         0.0845
     15 C12         0.5414   -3.0671   -2.9201 C.2       1 <0>        -0.2127
     16 C13         0.5434   -4.0613   -4.0103 C.2       1 <0>        -0.0695
     17 N2          1.1262   -3.4602   -5.0343 N.2       1 <0>        -0.1390
     18 N3          1.4768   -2.2646   -4.7408 N.2       1 <0>        -0.4401
     19 C14         1.1679   -1.9324   -3.5057 C.2       1 <0>         0.4085
     20 O2          1.4044   -0.7375   -2.9050 O.3       1 <0>        -0.6285
     21 C15         0.0091   -5.4351   -3.9673 C.2       1 <0>         0.0098
     22 C16        -0.0135   -6.4151   -4.9522 C.2       1 <0>        -0.0534
     23 N4         -0.5701   -7.5434   -4.5817 N.2       1 <0>        -0.2516
     24 N5         -1.0514   -7.7168   -3.4026 N.2       1 <0>        -0.2659
     25 S1         -0.7854   -6.3148   -2.6326 S.3       1 <0>         0.2032
     26 H1          0.3682    1.9829   -0.2142 H         1 <0>         0.0760
     27 H2         -1.2780    1.6721   -0.8156 H         1 <0>         0.0878
     28 H3         -0.9662    1.7282    0.9360 H         1 <0>         0.0806
     29 H4         -0.5741   -0.4494   -2.1220 H         1 <0>         0.1893
     30 H5          0.1056    0.6251    2.7413 H         1 <0>         0.1274
     31 H6          0.7342   -1.0945    4.3741 H         1 <0>         0.1373
     32 H7          1.5645   -4.0415    5.8300 H         1 <0>         0.0995
     33 H8          2.0724   -2.4374    5.2495 H         1 <0>         0.0546
     34 H9          0.3520   -2.7652    5.5670 H         1 <0>         0.0545
     35 H10        -0.3044   -4.1687   -1.2792 H         1 <0>         0.1263
     36 H11         0.3929   -6.2603   -5.9408 H         1 <0>         0.1983
@<TRIPOS>BOND
     1    1    2 1
     2    1   26 1
     3    1   27 1
     4    1   28 1
     5    2    6 1
     6    2    3 1
     7    3    4 2
     8    3   29 1
     9    4    5 1
    10    4   14 1
    11    5   10 ar
    12    5    6 ar
    13    6    7 ar
    14    7    8 ar
    15    7   30 1
    16    8    9 ar
    17    8   31 1
    18    9   10 ar
    19    9   12 1
    20   10   11 1
    21   12   13 1
    22   13   32 1
    23   13   33 1
    24   13   34 1
    25   14   15 2
    26   14   35 1
    27   15   19 1
    28   15   16 1
    29   16   17 2
    30   16   21 1
    31   17   18 1
    32   18   19 2
    33   19   20 1
    34   21   25 1
    35   21   22 2
    36   22   23 1
    37   22   36 1
    38   23   24 2
    39   24   25 1
@<TRIPOS>MOLECULE
CHEMBL398460__1
   37    40     0     0     0
SMALL
USER_CHARGES

@<TRIPOS>ATOM
      1 C1         -0.5230    1.4452   -0.0414 C.3       1 <0>         0.0667
      2 N1         -0.2713    0.0020   -0.0393 N.pl3     1 <0>        -0.4530
      3 C2         -0.3058   -0.7818   -1.1326 C.2       1 <0>         0.2050
      4 C3         -0.0223   -2.0883   -0.7751 C.2       1 <0>        -0.2390
      5 C4          0.2036   -2.0743    0.6846 C.ar      1 <0>        -0.0025
      6 C5          0.0399   -0.7394    1.0853 C.ar      1 <0>         0.0459
      7 C6          0.1982   -0.4046    2.4261 C.ar      1 <0>        -0.0499
      8 C7          0.5166   -1.3787    3.3475 C.ar      1 <0>        -0.1867
      9 C8          0.6827   -2.7010    2.9505 C.ar      1 <0>         0.1567
     10 C9          0.5202   -3.0531    1.6217 C.ar      1 <0>        -0.1044
     11 Br1         0.7478   -4.8504    1.0795 Br        1 <0>        -0.0305
     12 O1          0.9968   -3.6515    3.8709 O.3       1 <0>        -0.3000
     13 C10         1.1406   -3.2203    5.2257 C.3       1 <0>         0.0239
     14 C11         0.0380   -3.2074   -1.6314 C.2       1 <0>         0.1644
     15 C12         0.5378   -3.0700   -2.9186 C.2       1 <0>        -0.2922
     16 C13         0.5310   -4.0773   -3.9986 C.2       1 <0>         0.2024
     17 N2          1.1003   -3.5322   -5.0428 N.2       1 <0>        -0.2064
     18 N3          1.5019   -2.2246   -4.7718 N.am      1 <0>        -0.5538
     19 C14         1.1828   -1.8900   -3.5058 C.2       1 <0>         0.5381
     20 O2          1.3909   -0.8207   -2.9570 O.2       1 <0>        -0.5122
     21 C15        -0.0171   -5.4467   -3.9154 C.2       1 <0>        -0.1153
     22 C16        -0.0577   -6.4426   -4.8672 C.2       1 <0>         0.0357
     23 N4         -0.6208   -7.5585   -4.4699 N.2       1 <0>        -0.2590
     24 N5         -1.0946   -7.7016   -3.2830 N.2       1 <0>        -0.1951
     25 S1         -0.8074   -6.2834   -2.5510 S.3       1 <0>         0.3081
     26 H1          0.4144    1.9773   -0.2038 H         1 <0>         0.0832
     27 H2         -1.2232    1.6907   -0.8399 H         1 <0>         0.0931
     28 H3         -0.9475    1.7414    0.9178 H         1 <0>         0.0895
     29 H4         -0.5219   -0.4432   -2.1352 H         1 <0>         0.1896
     30 H5          0.0719    0.6194    2.7451 H         1 <0>         0.1348
     31 H6          0.6386   -1.1126    4.3871 H         1 <0>         0.1454
     32 H7          1.3909   -4.0749    5.8543 H         1 <0>         0.1057
     33 H8          1.9362   -2.4779    5.2881 H         1 <0>         0.0587
     34 H9          0.2044   -2.7793    5.5679 H         1 <0>         0.0590
     35 H10        -0.3049   -4.1713   -1.2854 H         1 <0>         0.1397
     36 H11         1.9447   -1.6383   -5.4051 H         1 <0>         0.4428
     37 H12         0.3423   -6.3141   -5.8621 H         1 <0>         0.2115
@<TRIPOS>BOND
     1    1    2 1
     2    1   26 1
     3    1   27 1
     4    1   28 1
     5    2    6 1
     6    2    3 1
     7    3    4 2
     8    3   29 1
     9    4    5 1
    10    4   14 1
    11    5   10 ar
    12    5    6 ar
    13    6    7 ar
    14    7    8 ar
    15    7   30 1
    16    8    9 ar
    17    8   31 1
    18    9   10 ar
    19    9   12 1
    20   10   11 1
    21   12   13 1
    22   13   32 1
    23   13   33 1
    24   13   34 1
    25   14   15 2
    26   14   35 1
    27   15   19 1
    28   15   16 1
    29   16   17 2
    30   16   21 1
    31   17   18 1
    32   18   19 am
    33   18   36 1
    34   19   20 2
    35   21   25 1
    36   21   22 2
    37   22   23 1
    38   22   37 1
    39   23   24 2
    40   24   25 1
@<TRIPOS>MOLECULE
CHEMBL219584
   49    52     0     0     0
SMALL
USER_CHARGES

@<TRIPOS>ATOM
      1 C1         -0.0484    1.5024    0.0098 C.3       1 <0>        -0.1254
      2 C2         -0.0196   -0.0043    0.0016 C.ar      1 <0>        -0.0273
      3 C3         -0.0178   -0.6868   -1.1985 C.ar      1 <0>        -0.1244
      4 C4          0.0085   -2.0672   -1.2153 C.ar      1 <0>        -0.0688
      5 C5          0.0335   -2.7839   -0.0162 C.ar      1 <0>        -0.1436
      6 C6          0.0324   -2.1031    1.1989 C.ar      1 <0>        -0.0241
      7 C7          0.0111   -0.7081    1.2093 C.ar      1 <0>         0.0055
      8 C8          0.0147    0.0008    2.4535 C.1       1 <0>        -0.1023
      9 C9          0.0176    0.5820    3.4736 C.1       1 <0>        -0.1054
     10 C10         0.0212    1.2909    4.7178 C.ar      1 <0>        -0.0411
     11 C11        -0.0117    2.6820    4.7330 C.ar      1 <0>        -0.0285
     12 C12        -0.0071    3.3272    5.9807 C.ar      1 <0>        -0.1027
     13 C13        -0.0394    4.7293    6.0758 C.ar      1 <0>        -0.0935
     14 C14        -0.0342    5.3208    7.3018 C.ar      1 <0>        -0.1138
     15 C15         0.0032    4.5540    8.4648 C.ar      1 <0>        -0.0944
     16 C16         0.0352    3.1942    8.4096 C.ar      1 <0>        -0.0942
     17 C17         0.0306    2.5451    7.1630 C.ar      1 <0>         0.1320
     18 N1          0.0605    1.2099    7.0859 N.ar      1 <0>        -0.4683
     19 C18         0.0520    0.5866    5.9359 C.ar      1 <0>         0.1589
     20 C19         0.0607   -4.2619   -0.0371 C.2       1 <0>         0.5630
     21 O1          0.0825   -4.8842    1.0069 O.2       1 <0>        -0.5087
     22 N2          0.0613   -4.9193   -1.2137 N.am      1 <0>        -0.6692
     23 C20         0.1848   -6.3121   -1.2364 C.ar      1 <0>         0.1437
     24 C21         0.8890   -6.9319   -2.2609 C.ar      1 <0>        -0.1112
     25 C22         1.0090   -8.3074   -2.2803 C.ar      1 <0>        -0.0994
     26 C23         0.4286   -9.0679   -1.2816 C.ar      1 <0>        -0.0859
     27 C24        -0.2734   -8.4542   -0.2607 C.ar      1 <0>        -0.1640
     28 C25        -0.3916   -7.0782   -0.2317 C.ar      1 <0>        -0.0721
     29 C26        -0.9046   -9.2869    0.8252 C.3       1 <0>         0.5091
     30 F1         -0.6455  -10.6405    0.5851 F         1 <0>        -0.1760
     31 F2         -0.3676   -8.9219    2.0644 F         1 <0>        -0.1723
     32 F3         -2.2869   -9.0712    0.8343 F         1 <0>        -0.1756
     33 H1          0.9720    1.8854   -0.0029 H         1 <0>         0.0814
     34 H2         -0.5818    1.8604   -0.8708 H         1 <0>         0.0770
     35 H3         -0.5562    1.8512    0.9089 H         1 <0>         0.0722
     36 H4         -0.0374   -0.1383   -2.1286 H         1 <0>         0.1396
     37 H5          0.0094   -2.5943   -2.1579 H         1 <0>         0.1313
     38 H6          0.0517   -2.6524    2.1286 H         1 <0>         0.1451
     39 H7         -0.0395    3.2482    3.8138 H         1 <0>         0.1449
     40 H8         -0.0679    5.3337    5.1812 H         1 <0>         0.1331
     41 H9         -0.0591    6.3981    7.3741 H         1 <0>         0.1313
     42 H10         0.0074    5.0467    9.4258 H         1 <0>         0.1334
     43 H11         0.0644    2.6158    9.3212 H         1 <0>         0.1389
     44 H12         0.0733   -0.4931    5.9208 H         1 <0>         0.1659
     45 H13        -0.0239   -4.4263   -2.0447 H         1 <0>         0.4143
     46 H14         1.3419   -6.3386   -3.0415 H         1 <0>         0.1374
     47 H15         1.5564   -8.7898   -3.0766 H         1 <0>         0.1418
     48 H16         0.5236  -10.1436   -1.2993 H         1 <0>         0.1416
     49 H17        -0.9359   -6.5991    0.5686 H         1 <0>         0.1511
@<TRIPOS>BOND
     1    1    2 1
     2    1   33 1
     3    1   34 1
     4    1   35 1
     5    2    7 ar
     6    2    3 ar
     7    3    4 ar
     8    3   36 1
     9    4    5 ar
    10    4   37 1
    11    5    6 ar
    12    5   20 1
    13    6    7 ar
    14    6   38 1
    15    7    8 1
    16    8    9 3
    17    9   10 1
    18   10   19 ar
    19   10   11 ar
    20   11   12 ar
    21   11   39 1
    22   12   17 ar
    23   12   13 ar
    24   13   14 ar
    25   13   40 1
    26   14   15 ar
    27   14   41 1
    28   15   16 ar
    29   15   42 1
    30   16   17 ar
    31   16   43 1
    32   17   18 ar
    33   18   19 ar
    34   19   44 1
    35   20   21 2
    36   20   22 am
    37   22   23 1
    38   22   45 1
    39   23   28 ar
    40   23   24 ar
    41   24   25 ar
    42   24   46 1
    43   25   26 ar
    44   25   47 1
    45   26   27 ar
    46   26   48 1
    47   27   28 ar
    48   27   29 1
    49   28   49 1
    50   29   30 1
    51   29   31 1
    52   29   32 1
@<TRIPOS>MOLECULE
CHEMBL376245
   65    69     0     0     0
SMALL
USER_CHARGES

@<TRIPOS>ATOM
      1 C1         -1.1917    1.0260   -0.4143 C.3       1 <0>        -0.1177
      2 C2         -1.7169   -0.2504    0.1908 C.ar      1 <0>        -0.0636
      3 C3         -2.9567   -0.7343   -0.1855 C.ar      1 <0>        -0.1305
      4 C4         -3.4421   -1.9049    0.3673 C.ar      1 <0>        -0.0948
      5 C5         -2.6893   -2.5952    1.2974 C.ar      1 <0>        -0.1251
      6 C6         -1.4441   -2.1123    1.6769 C.ar      1 <0>         0.1566
      7 C7         -0.9573   -0.9386    1.1161 C.ar      1 <0>        -0.1445
      8 N1         -0.6791   -2.8093    2.6188 N.am      1 <0>        -0.6762
      9 C8         -0.7432   -4.1543    2.6767 C.2       1 <0>         0.7044
     10 O1         -1.3915   -4.7682    1.8513 O.2       1 <0>        -0.5476
     11 N2         -0.0885   -4.8189    3.6495 N.am      1 <0>        -0.6851
     12 C9         -0.0651   -6.2173    3.6473 C.ar      1 <0>         0.1918
     13 C10        -0.0541   -6.9088    2.4416 C.ar      1 <0>        -0.1101
     14 C11        -0.0305   -8.2869    2.4361 C.ar      1 <0>        -0.0652
     15 C12        -0.0177   -8.9880    3.6429 C.ar      1 <0>        -0.0944
     16 C13        -0.0289   -8.2907    4.8518 C.ar      1 <0>        -0.1102
     17 C14        -0.0471   -6.9126    4.8507 C.ar      1 <0>        -0.1423
     18 C15         0.0071  -10.4680    3.6405 C.ar      1 <0>         0.0544
     19 C16        -0.8886  -11.1865    2.8716 C.ar      1 <0>        -0.1007
     20 C17        -0.8781  -12.5782    2.8586 C.ar      1 <0>        -0.0962
     21 C18         0.0029  -13.3105    3.5928 C.ar      1 <0>         0.0997
     22 C19         0.9602  -12.6679    4.4133 C.ar      1 <0>         0.2259
     23 C20         0.9840  -11.1988    4.4473 C.ar      1 <0>        -0.2032
     24 C21         2.0080  -10.8407    5.3110 C.2       1 <0>         0.5261
     25 N3          2.5730  -11.9731    5.7668 N.pl3     1 <0>        -0.4328
     26 N4          1.9199  -13.0838    5.2201 N.pl3     1 <0>        -0.4133
     27 H1          3.3164  -12.0140    6.3886 H         1 <0>         0.4702
     28 N5          2.3829   -9.5466    5.6448 N.pl3     1 <0>        -0.7883
     29 O2         -0.0372  -14.6677    3.5382 O.3       1 <0>        -0.3138
     30 C22        -1.0276  -15.2539    2.6912 C.3       1 <0>         0.0392
     31 C23        -0.9193  -16.7786    2.7594 C.3       1 <0>         0.1284
     32 N6         -1.2496  -17.2315    4.1130 N.am      1 <0>        -0.6224
     33 C24        -0.2716  -17.3850    5.1965 C.3       1 <0>         0.1062
     34 C25        -1.1034  -17.4467    6.4967 C.3       1 <0>        -0.1333
     35 C26        -2.4618  -17.9721    5.9774 C.3       1 <0>        -0.1574
     36 C27        -2.4881  -17.5543    4.5237 C.2       1 <0>         0.5162
     37 O3         -3.4817  -17.5183    3.8291 O.2       1 <0>        -0.5230
     38 H2         -0.6293    0.7947   -1.3189 H         1 <0>         0.0738
     39 H3         -2.0270    1.6806   -0.6632 H         1 <0>         0.0709
     40 H4         -0.5391    1.5258    0.3015 H         1 <0>         0.0676
     41 H5         -3.5471   -0.1963   -0.9124 H         1 <0>         0.1262
     42 H6         -4.4109   -2.2798    0.0720 H         1 <0>         0.1282
     43 H7         -3.0692   -3.5094    1.7291 H         1 <0>         0.1341
     44 H8          0.0126   -0.5624    1.4065 H         1 <0>         0.1255
     45 H9         -0.1027   -2.3245    3.2300 H         1 <0>         0.4100
     46 H10         0.3663   -4.3273    4.3512 H         1 <0>         0.4130
     47 H11        -0.0643   -6.3658    1.5081 H         1 <0>         0.1486
     48 H12        -0.0223   -8.8237    1.4990 H         1 <0>         0.1385
     49 H13        -0.0194   -8.8305    5.7872 H         1 <0>         0.1320
     50 H14        -0.0516   -6.3724    5.7859 H         1 <0>         0.1383
     51 H15        -1.6117  -10.6573    2.2688 H         1 <0>         0.1546
     52 H16        -1.5974  -13.0969    2.2421 H         1 <0>         0.1576
     53 H17         1.9113   -8.7908    5.2610 H         1 <0>         0.4426
     54 H18         3.1164   -9.3980    6.2619 H         1 <0>         0.4250
     55 H19        -2.0187  -14.9448    3.0232 H         1 <0>         0.0785
     56 H20        -0.8691  -14.9240    1.6645 H         1 <0>         0.0869
     57 H21        -1.6140  -17.2244    2.0475 H         1 <0>         0.1138
     58 H22         0.0982  -17.0820    2.5129 H         1 <0>         0.0952
     59 H23         0.2938  -18.3077    5.0663 H         1 <0>         0.0748
     60 H24         0.4025  -16.5288    5.2202 H         1 <0>         0.0755
     61 H25        -0.6623  -18.1437    7.2093 H         1 <0>         0.0938
     62 H26        -1.2113  -16.4560    6.9382 H         1 <0>         0.0792
     63 H27        -2.5108  -19.0572    6.0674 H         1 <0>         0.1096
     64 H28        -3.2840  -17.5058    6.5204 H         1 <0>         0.1045
     65 H29         2.1442  -14.0109    5.3960 H         1 <0>         0.4746
@<TRIPOS>BOND
     1    1    2 1
     2    1   38 1
     3    1   39 1
     4    1   40 1
     5    2    7 ar
     6    2    3 ar
     7    3    4 ar
     8    3   41 1
     9    4    5 ar
    10    4   42 1
    11    5    6 ar
    12    5   43 1
    13    6    7 ar
    14    6    8 1
    15    7   44 1
    16    8    9 am
    17    8   45 1
    18    9   10 2
    19    9   11 am
    20   11   12 1
    21   11   46 1
    22   12   17 ar
    23   12   13 ar
    24   13   14 ar
    25   13   47 1
    26   14   15 ar
    27   14   48 1
    28   15   16 ar
    29   15   18 1
    30   16   17 ar
    31   16   49 1
    32   17   50 1
    33   18   23 ar
    34   18   19 ar
    35   19   20 ar
    36   19   51 1
    37   20   21 ar
    38   20   52 1
    39   21   22 ar
    40   21   29 1
    41   22   23 ar
    42   22   26 2
    43   23   24 2
    44   24   28 1
    45   24   25 1
    46   25   27 1
    47   25   26 1
    48   26   65 1
    49   28   53 1
    50   28   54 1
    51   29   30 1
    52   30   31 1
    53   30   55 1
    54   30   56 1
    55   31   32 1
    56   31   57 1
    57   31   58 1
    58   32   36 am
    59   32   33 1
    60   33   34 1
    61   33   59 1
    62   33   60 1
    63   34   35 1
    64   34   61 1
    65   34   62 1
    66   35   36 1
    67   35   63 1
    68   35   64 1
    69   36   37 2
@<TRIPOS>MOLECULE
CHEMBL376245__1
   64    68     0     0     0
SMALL
USER_CHARGES

@<TRIPOS>ATOM
      1 C1         -1.1917    1.0260   -0.4143 C.3       1 <0>        -0.1154
      2 C2         -1.7169   -0.2504    0.1908 C.ar      1 <0>        -0.0662
      3 C3         -2.9567   -0.7343   -0.1855 C.ar      1 <0>        -0.1350
      4 C4         -3.4421   -1.9049    0.3673 C.ar      1 <0>        -0.0949
      5 C5         -2.6893   -2.5952    1.2974 C.ar      1 <0>        -0.1252
      6 C6         -1.4441   -2.1123    1.6769 C.ar      1 <0>         0.1640
      7 C7         -0.9573   -0.9386    1.1161 C.ar      1 <0>        -0.1474
      8 N1         -0.6791   -2.8093    2.6188 N.am      1 <0>        -0.6812
      9 C8         -0.7432   -4.1543    2.6767 C.2       1 <0>         0.7033
     10 O1         -1.3915   -4.7682    1.8513 O.2       1 <0>        -0.5493
     11 N2         -0.0885   -4.8189    3.6495 N.am      1 <0>        -0.6818
     12 C9         -0.0651   -6.2173    3.6473 C.ar      1 <0>         0.1630
     13 C10        -0.0541   -6.9088    2.4416 C.ar      1 <0>        -0.1115
     14 C11        -0.0305   -8.2869    2.4361 C.ar      1 <0>        -0.0826
     15 C12        -0.0177   -8.9880    3.6429 C.ar      1 <0>        -0.0503
     16 C13        -0.0289   -8.2907    4.8518 C.ar      1 <0>        -0.1078
     17 C14        -0.0471   -6.9126    4.8507 C.ar      1 <0>        -0.1421
     18 C15         0.0071  -10.4680    3.6405 C.ar      1 <0>         0.0047
     19 C16        -0.8886  -11.1865    2.8716 C.ar      1 <0>        -0.1152
     20 C17        -0.8781  -12.5782    2.8586 C.ar      1 <0>        -0.1790
     21 C18         0.0029  -13.3105    3.5928 C.ar      1 <0>         0.1450
     22 C19         0.9602  -12.6679    4.4133 C.ar      1 <0>         0.1340
     23 C20         0.9840  -11.1988    4.4473 C.ar      1 <0>        -0.2316
     24 C21         2.0080  -10.8407    5.3110 C.2       1 <0>         0.3934
     25 N3          2.5730  -11.9731    5.7668 N.pl3     1 <0>        -0.4649
     26 N4          1.9199  -13.0838    5.2201 N.2       1 <0>        -0.2916
     27 H1          3.3164  -12.0140    6.3886 H         1 <0>         0.4403
     28 N5          2.3829   -9.5466    5.6448 N.pl3     1 <0>        -0.8464
     29 O2         -0.0372  -14.6677    3.5382 O.3       1 <0>        -0.3035
     30 C22        -1.0276  -15.2539    2.6912 C.3       1 <0>         0.0393
     31 C23        -0.9193  -16.7786    2.7594 C.3       1 <0>         0.1299
     32 N6         -1.2496  -17.2315    4.1130 N.am      1 <0>        -0.6148
     33 C24        -0.2716  -17.3850    5.1965 C.3       1 <0>         0.1018
     34 C25        -1.1034  -17.4467    6.4967 C.3       1 <0>        -0.1317
     35 C26        -2.4618  -17.9721    5.9774 C.3       1 <0>        -0.1558
     36 C27        -2.4881  -17.5543    4.5237 C.2       1 <0>         0.5154
     37 O3         -3.4817  -17.5183    3.8291 O.2       1 <0>        -0.5347
     38 H2         -0.6293    0.7947   -1.3189 H         1 <0>         0.0722
     39 H3         -2.0270    1.6806   -0.6632 H         1 <0>         0.0689
     40 H4         -0.5391    1.5258    0.3015 H         1 <0>         0.0664
     41 H5         -3.5471   -0.1963   -0.9124 H         1 <0>         0.1238
     42 H6         -4.4109   -2.2798    0.0720 H         1 <0>         0.1268
     43 H7         -3.0692   -3.5094    1.7291 H         1 <0>         0.1356
     44 H8          0.0126   -0.5624    1.4065 H         1 <0>         0.1245
     45 H9         -0.1027   -2.3245    3.2300 H         1 <0>         0.4084
     46 H10         0.3663   -4.3273    4.3512 H         1 <0>         0.4088
     47 H11        -0.0643   -6.3658    1.5081 H         1 <0>         0.1394
     48 H12        -0.0223   -8.8237    1.4990 H         1 <0>         0.1318
     49 H13        -0.0194   -8.8305    5.7872 H         1 <0>         0.1313
     50 H14        -0.0516   -6.3724    5.7859 H         1 <0>         0.1293
     51 H15        -1.6117  -10.6573    2.2688 H         1 <0>         0.1258
     52 H16        -1.5974  -13.0969    2.2421 H         1 <0>         0.1297
     53 H17         1.9113   -8.7908    5.2610 H         1 <0>         0.4203
     54 H18         3.1164   -9.3980    6.2619 H         1 <0>         0.4018
     55 H19        -2.0187  -14.9448    3.0232 H         1 <0>         0.0686
     56 H20        -0.8691  -14.9240    1.6645 H         1 <0>         0.0764
     57 H21        -1.6140  -17.2244    2.0475 H         1 <0>         0.1052
     58 H22         0.0982  -17.0820    2.5129 H         1 <0>         0.0922
     59 H23         0.2938  -18.3077    5.0663 H         1 <0>         0.0705
     60 H24         0.4025  -16.5288    5.2202 H         1 <0>         0.0906
     61 H25        -0.6623  -18.1437    7.2093 H         1 <0>         0.0902
     62 H26        -1.2113  -16.4560    6.9382 H         1 <0>         0.0817
     63 H27        -2.5108  -19.0572    6.0674 H         1 <0>         0.1046
     64 H28        -3.2840  -17.5058    6.5204 H         1 <0>         0.1009
@<TRIPOS>BOND
     1    1    2 1
     2    1   38 1
     3    1   39 1
     4    1   40 1
     5    2    7 ar
     6    2    3 ar
     7    3    4 ar
     8    3   41 1
     9    4    5 ar
    10    4   42 1
    11    5    6 ar
    12    5   43 1
    13    6    7 ar
    14    6    8 1
    15    7   44 1
    16    8    9 am
    17    8   45 1
    18    9   10 2
    19    9   11 am
    20   11   12 1
    21   11   46 1
    22   12   17 ar
    23   12   13 ar
    24   13   14 ar
    25   13   47 1
    26   14   15 ar
    27   14   48 1
    28   15   16 ar
    29   15   18 1
    30   16   17 ar
    31   16   49 1
    32   17   50 1
    33   18   23 ar
    34   18   19 ar
    35   19   20 ar
    36   19   51 1
    37   20   21 ar
    38   20   52 1
    39   21   22 ar
    40   21   29 1
    41   22   23 ar
    42   22   26 2
    43   23   24 2
    44   24   28 1
    45   24   25 1
    46   25   27 1
    47   25   26 1
    48   28   53 1
    49   28   54 1
    50   29   30 1
    51   30   31 1
    52   30   55 1
    53   30   56 1
    54   31   32 1
    55   31   57 1
    56   31   58 1
    57   32   36 am
    58   32   33 1
    59   33   34 1
    60   33   59 1
    61   33   60 1
    62   34   35 1
    63   34   61 1
    64   34   62 1
    65   35   36 1
    66   35   63 1
    67   35   64 1
    68   36   37 2
@<TRIPOS>MOLECULE
CHEMBL376245__2
   64    68     0     0     0
SMALL
USER_CHARGES

@<TRIPOS>ATOM
      1 C1         -3.4510    1.0427    4.9980 C.3       1 <0>        -0.1155
      2 C2         -2.7715   -0.2190    5.4644 C.ar      1 <0>        -0.0662
      3 C3         -2.9723   -0.6754    6.7545 C.ar      1 <0>        -0.1349
      4 C4         -2.3512   -1.8327    7.1861 C.ar      1 <0>        -0.0952
      5 C5         -1.5276   -2.5369    6.3294 C.ar      1 <0>        -0.1250
      6 C6         -1.3239   -2.0814    5.0337 C.ar      1 <0>         0.1642
      7 C7         -1.9535   -0.9213    4.6015 C.ar      1 <0>        -0.1471
      8 N1         -0.4897   -2.7923    4.1636 N.am      1 <0>        -0.6813
      9 C8         -0.4197   -4.1358    4.2446 C.2       1 <0>         0.7035
     10 O1         -1.1485   -4.7375    5.0095 O.2       1 <0>        -0.5499
     11 N2          0.4581   -4.8123    3.4776 N.am      1 <0>        -0.6818
     12 C9          0.4585   -6.2109    3.4827 C.ar      1 <0>         0.1672
     13 C10        -0.7351   -6.9042    3.6453 C.ar      1 <0>        -0.1151
     14 C11        -0.7377   -8.2827    3.6512 C.ar      1 <0>        -0.0797
     15 C12         0.4592   -8.9818    3.4933 C.ar      1 <0>        -0.0626
     16 C13         1.6557   -8.2833    3.3298 C.ar      1 <0>        -0.0906
     17 C14         1.6516   -6.9048    3.3195 C.ar      1 <0>        -0.1442
     18 C15         0.4597  -10.4629    3.4997 C.ar      1 <0>         0.0001
     19 C16        -0.3277  -11.1658    2.5991 C.ar      1 <0>        -0.1119
     20 C17        -0.3298  -12.5518    2.6029 C.ar      1 <0>        -0.1591
     21 C18         0.4494  -13.2569    3.5004 C.ar      1 <0>         0.1055
     22 C19         1.2521  -12.5733    4.4179 C.ar      1 <0>         0.1366
     23 C20         1.2645  -11.1685    4.4169 C.ar      1 <0>        -0.1511
     24 C21         2.1925  -10.7633    5.4705 C.2       1 <0>         0.3622
     25 N3          2.6705  -11.8498    6.0183 N.2       1 <0>        -0.3119
     26 N4          2.1125  -12.9775    5.4073 N.pl3     1 <0>        -0.4981
     27 H1          2.3104  -13.8984    5.6389 H         1 <0>         0.4426
     28 N5          2.5123   -9.4500    5.8278 N.pl3     1 <0>        -0.8354
     29 O2          0.4347  -14.6161    3.4911 O.3       1 <0>        -0.3150
     30 C22        -0.4089  -15.2492    2.5270 C.3       1 <0>         0.0425
     31 C23        -0.2935  -16.7684    2.6677 C.3       1 <0>         0.1293
     32 N6         -0.8190  -17.1793    3.9720 N.am      1 <0>        -0.6167
     33 C24        -0.0144  -17.2773    5.1955 C.3       1 <0>         0.1036
     34 C25        -1.0325  -17.3082    6.3569 C.3       1 <0>        -0.1330
     35 C26        -2.2902  -17.8755    5.6588 C.3       1 <0>        -0.1559
     36 C27        -2.1014  -17.5095    4.2031 C.2       1 <0>         0.5160
     37 O3         -2.9788  -17.5156    3.3659 O.2       1 <0>        -0.5320
     38 H2         -4.4221    0.7952    4.5693 H         1 <0>         0.0723
     39 H3         -3.5883    1.7156    5.8444 H         1 <0>         0.0689
     40 H4         -2.8340    1.5298    4.2429 H         1 <0>         0.0665
     41 H5         -3.6155   -0.1263    7.4262 H         1 <0>         0.1237
     42 H6         -2.5097   -2.1863    8.1942 H         1 <0>         0.1266
     43 H7         -1.0423   -3.4407    6.6673 H         1 <0>         0.1352
     44 H8         -1.8003   -0.5667    3.5930 H         1 <0>         0.1247
     45 H9          0.0381   -2.3181    3.5022 H         1 <0>         0.4086
     46 H10         1.0897   -4.3291    2.9220 H         1 <0>         0.4095
     47 H11        -1.6613   -6.3625    3.7675 H         1 <0>         0.1392
     48 H12        -1.6653   -8.8209    3.7784 H         1 <0>         0.1302
     49 H13         2.5838   -8.8219    3.2077 H         1 <0>         0.1314
     50 H14         2.5770   -6.3635    3.1889 H         1 <0>         0.1301
     51 H15        -0.9427  -10.6299    1.8913 H         1 <0>         0.1322
     52 H16        -0.9475  -13.0868    1.8968 H         1 <0>         0.1361
     53 H17         2.0114   -8.7094    5.4517 H         1 <0>         0.4125
     54 H18         3.2352   -9.2795    6.4518 H         1 <0>         0.4057
     55 H19        -1.4426  -14.9463    2.6941 H         1 <0>         0.0693
     56 H20        -0.1010  -14.9528    1.5243 H         1 <0>         0.0771
     57 H21        -0.8669  -17.2512    1.8764 H         1 <0>         0.1065
     58 H22         0.7533  -17.0621    2.5889 H         1 <0>         0.0922
     59 H23         0.5755  -18.1938    5.1866 H         1 <0>         0.0723
     60 H24         0.6378  -16.4090    5.2886 H         1 <0>         0.0835
     61 H25        -0.6957  -17.9717    7.1534 H         1 <0>         0.0919
     62 H26        -1.2181  -16.3046    6.7397 H         1 <0>         0.0820
     63 H27        -2.3388  -18.9575    5.7808 H         1 <0>         0.1058
     64 H28        -3.1906  -17.4052    6.0538 H         1 <0>         0.1021
@<TRIPOS>BOND
     1    1    2 1
     2    1   38 1
     3    1   39 1
     4    1   40 1
     5    2    7 ar
     6    2    3 ar
     7    3    4 ar
     8    3   41 1
     9    4    5 ar
    10    4   42 1
    11    5    6 ar
    12    5   43 1
    13    6    7 ar
    14    6    8 1
    15    7   44 1
    16    8    9 am
    17    8   45 1
    18    9   10 2
    19    9   11 am
    20   11   12 1
    21   11   46 1
    22   12   17 ar
    23   12   13 ar
    24   13   14 ar
    25   13   47 1
    26   14   15 ar
    27   14   48 1
    28   15   16 ar
    29   15   18 1
    30   16   17 ar
    31   16   49 1
    32   17   50 1
    33   18   23 ar
    34   18   19 ar
    35   19   20 ar
    36   19   51 1
    37   20   21 ar
    38   20   52 1
    39   21   22 ar
    40   21   29 1
    41   22   26 1
    42   22   23 ar
    43   23   24 1
    44   24   25 2
    45   24   28 1
    46   25   26 1
    47   26   27 1
    48   28   53 1
    49   28   54 1
    50   29   30 1
    51   30   31 1
    52   30   55 1
    53   30   56 1
    54   31   32 1
    55   31   57 1
    56   31   58 1
    57   32   36 am
    58   32   33 1
    59   33   34 1
    60   33   59 1
    61   33   60 1
    62   34   35 1
    63   34   61 1
    64   34   62 1
    65   35   36 1
    66   35   63 1
    67   35   64 1
    68   36   37 2
@<TRIPOS>MOLECULE
CHEMBL204163
   40    42     0     0     0
SMALL
USER_CHARGES

@<TRIPOS>ATOM
      1 C1         -0.0164    1.3872    0.0098 C.ar      1 <0>        -0.3376
      2 C2          1.1997    2.0630   -0.0017 C.ar      1 <0>         0.4462
      3 N1          2.3300    1.3593   -0.0229 N.ar      1 <0>        -0.5396
      4 C3          2.3064    0.0421   -0.0330 C.ar      1 <0>         0.3789
      5 N2          1.1760   -0.6343   -0.0231 N.ar      1 <0>        -0.5914
      6 C4          0.0028   -0.0043   -0.0014 C.ar      1 <0>         0.4501
      7 N3         -1.1819   -0.7241    0.0098 N.pl3     1 <0>        -0.5975
      8 C5         -1.1153   -2.1948    0.1162 C.3       1 <0>         0.1159
      9 C6         -2.1765   -2.7555    1.0802 C.3       1 <0>        -0.1327
     10 C7         -2.2937   -1.8684    2.2950 C.3       1 <0>        -0.1402
     11 C8         -3.3797   -0.8238    2.0555 C.3       1 <0>         0.0420
     12 C9         -2.9198    0.3748    1.3375 C.3       1 <0>        -0.1839
     13 C10        -2.4319   -0.0029   -0.0773 C.3       1 <0>         0.1333
     14 N4         -3.9226   -0.4089    3.3559 N.4       1 <0>        -0.6422
     15 N5          1.2343    3.4511    0.0084 N.pl3     1 <0>        -0.5910
     16 C11         2.4445    4.1115    0.1047 C.2       1 <0>         0.2860
     17 N6          3.6593    3.5947    0.1015 N.2       1 <0>        -0.5133
     18 C12         4.7250    4.3513    0.2011 C.2       1 <0>         0.1568
     19 C13         4.5033    5.7164    0.3093 C.2       1 <0>        -0.1976
     20 S1          2.7193    5.7657    0.2464 S.3       1 <0>         0.2029
     21 C14         5.4442    6.7890    0.4315 C.1       1 <0>         0.2952
     22 N7          6.1905    7.6399    0.5285 N.1       1 <0>        -0.3859
     23 H1         -0.9508    1.9284    0.0315 H         1 <0>         0.1405
     24 H2          3.2410   -0.4989   -0.0502 H         1 <0>         0.2038
     25 H3         -1.2702   -2.6285   -0.8717 H         1 <0>         0.0722
     26 H4         -0.1260   -2.4792    0.4746 H         1 <0>         0.1047
     27 H5         -3.1394   -2.8005    0.5713 H         1 <0>         0.0759
     28 H6         -1.8873   -3.7591    1.3921 H         1 <0>         0.0997
     29 H7         -2.5559   -2.4732    3.1631 H         1 <0>         0.0895
     30 H8         -1.3416   -1.3687    2.4737 H         1 <0>         0.0956
     31 H9         -4.1826   -1.2850    1.4805 H         1 <0>         0.1373
     32 H10        -3.7420    1.0860    1.2591 H         1 <0>         0.1027
     33 H11        -2.1003    0.8342    1.8902 H         1 <0>         0.0935
     34 H12        -2.2866    0.9061   -0.6610 H         1 <0>         0.0995
     35 H13        -3.1797   -0.6299   -0.5629 H         1 <0>         0.0942
     36 H14        -3.1837   -0.0145    3.9185 H         1 <0>         0.4332
     37 H15        -4.6433    0.2830    3.2142 H         1 <0>         0.4349
     38 H16         0.4091    3.9573   -0.0522 H         1 <0>         0.4392
     39 H17         5.7214    3.9346    0.1995 H         1 <0>         0.1921
     40 H18        -4.3138   -1.2102    3.8282 H         1 <0>         0.4367
@<TRIPOS>BOND
     1    1    6 ar
     2    1    2 ar
     3    1   23 1
     4    2    3 ar
     5    2   15 1
     6    3    4 ar
     7    4    5 ar
     8    4   24 1
     9    5    6 ar
    10    6    7 1
    11    7   13 1
    12    7    8 1
    13    8    9 1
    14    8   25 1
    15    8   26 1
    16    9   10 1
    17    9   27 1
    18    9   28 1
    19   10   11 1
    20   10   29 1
    21   10   30 1
    22   11   12 1
    23   11   14 1
    24   11   31 1
    25   12   13 1
    26   12   32 1
    27   12   33 1
    28   13   34 1
    29   13   35 1
    30   14   36 1
    31   14   37 1
    32   14   40 1
    33   15   16 1
    34   15   38 1
    35   16   20 1
    36   16   17 2
    37   17   18 1
    38   18   19 2
    39   18   39 1
    40   19   20 1
    41   19   21 1
    42   21   22 3
@<TRIPOS>MOLECULE
CHEMBL204163__1
   41    43     0     0     0
SMALL
USER_CHARGES

@<TRIPOS>ATOM
      1 C1         -2.4375    1.2500    0.0195 C.ar      1 <0>        -0.3131
      2 C2         -2.3000   -0.1341    0.0106 C.ar      1 <0>         0.5040
      3 N1         -1.0774   -0.6623    0.0240 N.ar      1 <0>        -0.4815
      4 C3         -0.0086    0.1072    0.0454 C.ar      1 <0>         0.4353
      5 N2         -0.0968    1.4218    0.0549 N.ar      1 <0>        -0.5704
      6 C4         -1.2826    2.0272    0.0363 C.ar      1 <0>         0.4796
      7 N3         -1.3661    3.4108    0.0452 N.pl3     1 <0>        -0.5817
      8 C5         -0.1227    4.1956   -0.0847 C.3       1 <0>         0.0884
      9 C6         -0.2924    5.3995   -1.0290 C.3       1 <0>        -0.1323
     10 C7         -1.1208    5.0059   -2.2270 C.3       1 <0>        -0.1465
     11 C8         -2.5909    5.2999   -1.9438 C.3       1 <0>         0.0355
     12 C9         -3.2944    4.2297   -1.2203 C.3       1 <0>        -0.1842
     13 C10        -2.6681    4.0258    0.1756 C.3       1 <0>         0.1171
     14 N4         -3.2761    5.5264   -3.2233 N.4       1 <0>        -0.6423
     15 N5         -3.4210   -0.9532   -0.0115 N.pl3     1 <0>        -0.5556
     16 C11        -3.2741   -2.3225   -0.1258 C.2       1 <0>         0.2138
     17 N6         -2.1573   -3.0267   -0.1290 N.2       1 <0>        -0.4992
     18 C12        -2.1717   -4.3321   -0.2462 C.2       1 <0>         0.1384
     19 C13        -3.4197   -4.9259   -0.3659 C.2       1 <0>        -0.1517
     20 S1         -4.4766   -3.4887   -0.2866 S.3       1 <0>         0.2761
     21 C14        -3.7649   -6.3084   -0.5083 C.1       1 <0>         0.2751
     22 N7         -4.0387   -7.4051   -0.6213 N.1       1 <0>        -0.3497
     23 H1         -3.4146    1.7098    0.0091 H         1 <0>         0.1827
     24 H2          0.9685   -0.3529    0.0557 H         1 <0>         0.2518
     25 H3          0.1722    4.5572    0.9004 H         1 <0>         0.1067
     26 H4          0.6646    3.5494   -0.4730 H         1 <0>         0.0873
     27 H5         -0.7899    6.2097   -0.4959 H         1 <0>         0.0935
     28 H6          0.6884    5.7378   -1.3632 H         1 <0>         0.1156
     29 H7         -0.7967    5.5773   -3.0969 H         1 <0>         0.1032
     30 H8         -0.9940    3.9412   -2.4230 H         1 <0>         0.0906
     31 H9         -2.6537    6.2150   -1.3550 H         1 <0>         0.1445
     32 H10        -4.3448    4.4990   -1.1099 H         1 <0>         0.1194
     33 H11        -3.2202    3.3017   -1.7873 H         1 <0>         0.0971
     34 H12        -3.3164    3.3808    0.7687 H         1 <0>         0.1169
     35 H13        -2.5655    4.9912    0.6711 H         1 <0>         0.1185
     36 H14        -3.1947    4.7018   -3.7991 H         1 <0>         0.4346
     37 H15        -4.2511    5.7224   -3.0526 H         1 <0>         0.4402
     38 H16        -4.3072   -0.5642    0.0534 H         1 <0>         0.4537
     39 H17        -1.2616   -4.9136   -0.2499 H         1 <0>         0.2020
     40 H18        -2.8534    6.3105   -3.6971 H         1 <0>         0.4425
     41 H19         0.7129    1.9557    0.0710 H         1 <0>         0.4443
@<TRIPOS>BOND
     1    1    2 ar
     2    1   23 1
     3    1    6 ar
     4    2   15 1
     5    2    3 ar
     6    3    4 ar
     7    4    5 ar
     8    4   24 1
     9    5    6 ar
    10    5   41 1
    11    6    7 1
    12    7   13 1
    13    7    8 1
    14    8    9 1
    15    8   25 1
    16    8   26 1
    17    9   10 1
    18    9   27 1
    19    9   28 1
    20   10   11 1
    21   10   29 1
    22   10   30 1
    23   11   12 1
    24   11   14 1
    25   11   31 1
    26   12   13 1
    27   12   32 1
    28   12   33 1
    29   13   34 1
    30   13   35 1
    31   14   36 1
    32   14   37 1
    33   14   40 1
    34   15   16 1
    35   15   38 1
    36   16   20 1
    37   16   17 2
    38   17   18 1
    39   18   19 2
    40   18   39 1
    41   19   20 1
    42   19   21 1
    43   21   22 3
@<TRIPOS>MOLECULE
CHEMBL204163__2
   41    43     0     0     0
SMALL
USER_CHARGES

@<TRIPOS>ATOM
      1 C1          0.0065    1.3878   -0.2339 C.ar      1 <0>        -0.2976
      2 C2          1.1992    2.0630    0.0049 C.ar      1 <0>         0.4666
      3 N1          2.3067    1.3588    0.2297 N.ar      1 <0>        -0.5618
      4 C3          2.2827    0.0415    0.2274 C.ar      1 <0>         0.4412
      5 N2          1.1740   -0.6344    0.0051 N.ar      1 <0>        -0.5327
      6 C4          0.0241   -0.0038   -0.2272 C.ar      1 <0>         0.4852
      7 N3         -1.1380   -0.7231   -0.4592 N.pl3     1 <0>        -0.5483
      8 C5         -1.0990   -2.1926   -0.3267 C.3       1 <0>         0.0971
      9 C6         -2.3412   -2.7432    0.3970 C.3       1 <0>        -0.1345
     10 C7         -2.7099   -1.8438    1.5509 C.3       1 <0>        -0.1442
     11 C8         -3.7183   -0.8014    1.0773 C.3       1 <0>         0.0347
     12 C9         -3.1143    0.3897    0.4608 C.3       1 <0>        -0.1795
     13 C10        -2.3397   -0.0024   -0.8153 C.3       1 <0>         0.1109
     14 N4         -4.5225   -0.3731    2.2296 N.4       1 <0>        -0.6419
     15 N5          1.2343    3.4511    0.0084 N.pl3     1 <0>        -0.5820
     16 C11         0.0588    4.1723   -0.0813 C.2       1 <0>         0.2285
     17 N6         -1.1804    3.7171   -0.0828 N.2       1 <0>        -0.5535
     18 C12        -2.2068    4.5271   -0.1750 C.2       1 <0>         0.1296
     19 C13        -1.9168    5.8804   -0.2700 C.2       1 <0>        -0.1502
     20 S1         -0.1327    5.8394   -0.2071 S.3       1 <0>         0.3308
     21 C14        -2.8027    6.9999   -0.3818 C.1       1 <0>         0.2681
     22 N7         -3.5054    7.8881   -0.4704 N.1       1 <0>        -0.3394
     23 H1         -0.9101    1.9294   -0.4153 H         1 <0>         0.2232
     24 H2          3.1986   -0.4999    0.4128 H         1 <0>         0.2535
     25 H3         -1.0429   -2.6363   -1.3208 H         1 <0>         0.0949
     26 H4         -0.2083   -2.4738    0.2353 H         1 <0>         0.1128
     27 H5         -3.1750   -2.7931   -0.3032 H         1 <0>         0.0859
     28 H6         -2.1268   -3.7437    0.7728 H         1 <0>         0.1116
     29 H7         -3.1510   -2.4397    2.3500 H         1 <0>         0.0994
     30 H8         -1.8158   -1.3426    1.9216 H         1 <0>         0.0913
     31 H9         -4.3829   -1.2681    0.3503 H         1 <0>         0.1435
     32 H10        -3.8997    1.1004    0.2035 H         1 <0>         0.1160
     33 H11        -2.4288    0.8545    1.1695 H         1 <0>         0.0975
     34 H12        -2.0722    0.9006   -1.3641 H         1 <0>         0.1132
     35 H13        -2.9696   -0.6340   -1.4417 H         1 <0>         0.1147
     36 H14        -3.9181    0.0267    2.9316 H         1 <0>         0.4336
     37 H15        -5.1953    0.3175    1.9322 H         1 <0>         0.4384
     38 H16         2.0839    3.9146    0.0737 H         1 <0>         0.4509
     39 H17        -3.2228    4.1609   -0.1771 H         1 <0>         0.2005
     40 H18        -5.0066   -1.1694    2.6165 H         1 <0>         0.4415
     41 H19         3.1425    1.8218    0.3970 H         1 <0>         0.4505
@<TRIPOS>BOND
     1    1    6 ar
     2    1    2 ar
     3    1   23 1
     4    2    3 ar
     5    2   15 1
     6    3    4 ar
     7    3   41 1
     8    4    5 ar
     9    4   24 1
    10    5    6 ar
    11    6    7 1
    12    7   13 1
    13    7    8 1
    14    8    9 1
    15    8   25 1
    16    8   26 1
    17    9   10 1
    18    9   27 1
    19    9   28 1
    20   10   11 1
    21   10   29 1
    22   10   30 1
    23   11   12 1
    24   11   14 1
    25   11   31 1
    26   12   13 1
    27   12   32 1
    28   12   33 1
    29   13   34 1
    30   13   35 1
    31   14   36 1
    32   14   37 1
    33   14   40 1
    34   15   16 1
    35   15   38 1
    36   16   20 1
    37   16   17 2
    38   17   18 1
    39   18   19 2
    40   18   39 1
    41   19   20 1
    42   19   21 1
    43   21   22 3
@<TRIPOS>MOLECULE
CHEMBL204163__3
   40    42     0     0     0
SMALL
USER_CHARGES

@<TRIPOS>ATOM
      1 C1         -0.0164    1.3872    0.0098 C.ar      1 <0>        -0.3375
      2 C2          1.1997    2.0630   -0.0017 C.ar      1 <0>         0.4467
      3 N1          2.3300    1.3593   -0.0229 N.ar      1 <0>        -0.5398
      4 C3          2.3064    0.0421   -0.0330 C.ar      1 <0>         0.3784
      5 N2          1.1760   -0.6343   -0.0231 N.ar      1 <0>        -0.5929
      6 C4          0.0028   -0.0043   -0.0014 C.ar      1 <0>         0.4503
      7 N3         -1.1819   -0.7241    0.0098 N.pl3     1 <0>        -0.5980
      8 C5         -1.1153   -2.1948    0.1162 C.3       1 <0>         0.1138
      9 C6         -2.1132   -2.8906   -0.8271 C.3       1 <0>        -0.1318
     10 C7         -2.1458   -2.1840   -2.1598 C.3       1 <0>        -0.1400
     11 C8         -3.2404   -1.1212   -2.1420 C.3       1 <0>         0.0418
     12 C9         -2.8232    0.1687   -1.5712 C.3       1 <0>        -0.1824
     13 C10        -2.4319   -0.0029   -0.0773 C.3       1 <0>         0.1330
     14 N4         -3.6944   -0.8961   -3.5208 N.4       1 <0>        -0.6421
     15 N5          1.2343    3.4511    0.0084 N.pl3     1 <0>        -0.5909
     16 C11         2.4445    4.1115    0.1047 C.2       1 <0>         0.2858
     17 N6          3.6593    3.5947    0.1015 N.2       1 <0>        -0.5136
     18 C12         4.7250    4.3513    0.2011 C.2       1 <0>         0.1565
     19 C13         4.5033    5.7164    0.3093 C.2       1 <0>        -0.1978
     20 S1          2.7193    5.7657    0.2464 S.3       1 <0>         0.2043
     21 C14         5.4442    6.7890    0.4315 C.1       1 <0>         0.2953
     22 N7          6.1905    7.6399    0.5285 N.1       1 <0>        -0.3860
     23 H1         -0.9508    1.9284    0.0315 H         1 <0>         0.1419
     24 H2          3.2410   -0.4989   -0.0502 H         1 <0>         0.2035
     25 H3         -0.1059   -2.5223   -0.1325 H         1 <0>         0.1076
     26 H4         -1.3370   -2.4857    1.1430 H         1 <0>         0.0711
     27 H5         -1.8088   -3.9268   -0.9748 H         1 <0>         0.0994
     28 H6         -3.1078   -2.8680   -0.3816 H         1 <0>         0.0752
     29 H7         -1.1817   -1.7100   -2.3439 H         1 <0>         0.0966
     30 H8         -2.3531   -2.9062   -2.9495 H         1 <0>         0.0892
     31 H9         -4.0816   -1.5005   -1.5620 H         1 <0>         0.1370
     32 H10        -1.9669    0.5495   -2.1278 H         1 <0>         0.0923
     33 H11        -3.6455    0.8800   -1.6481 H         1 <0>         0.1017
     34 H12        -3.2107   -0.5625    0.4407 H         1 <0>         0.0942
     35 H13        -2.3190    0.9765    0.3876 H         1 <0>         0.1009
     36 H14        -4.0573   -1.7577   -3.9003 H         1 <0>         0.4367
     37 H15        -4.4196   -0.1946   -3.5258 H         1 <0>         0.4348
     38 H16         0.4091    3.9573   -0.0522 H         1 <0>         0.4393
     39 H17         5.7214    3.9346    0.1995 H         1 <0>         0.1920
     40 H18        -2.9181   -0.5814   -4.0834 H         1 <0>         0.4333
@<TRIPOS>BOND
     1    1    6 ar
     2    1    2 ar
     3    1   23 1
     4    2    3 ar
     5    2   15 1
     6    3    4 ar
     7    4    5 ar
     8    4   24 1
     9    5    6 ar
    10    6    7 1
    11    7   13 1
    12    7    8 1
    13    8    9 1
    14    8   25 1
    15    8   26 1
    16    9   10 1
    17    9   27 1
    18    9   28 1
    19   10   11 1
    20   10   29 1
    21   10   30 1
    22   11   12 1
    23   11   14 1
    24   11   31 1
    25   12   13 1
    26   12   32 1
    27   12   33 1
    28   13   34 1
    29   13   35 1
    30   14   36 1
    31   14   37 1
    32   14   40 1
    33   15   16 1
    34   15   38 1
    35   16   20 1
    36   16   17 2
    37   17   18 1
    38   18   19 2
    39   18   39 1
    40   19   20 1
    41   19   21 1
    42   21   22 3
@<TRIPOS>MOLECULE
CHEMBL204163__4
   41    43     0     0     0
SMALL
USER_CHARGES

@<TRIPOS>ATOM
      1 C1         -2.3077    1.2647    0.2601 C.ar      1 <0>        -0.3131
      2 C2         -2.1819   -0.1204    0.2731 C.ar      1 <0>         0.5041
      3 N1         -0.9811   -0.6623    0.0779 N.ar      1 <0>        -0.4816
      4 C3          0.0775    0.0948   -0.1253 C.ar      1 <0>         0.4353
      5 N2         -0.0001    1.4100   -0.1445 N.ar      1 <0>        -0.5707
      6 C4         -1.1654    2.0284    0.0362 C.ar      1 <0>         0.4797
      7 N3         -1.2381    3.4125    0.0133 N.pl3     1 <0>        -0.5821
      8 C5          0.0153    4.1852   -0.0901 C.3       1 <0>         0.0886
      9 C6          0.0210    5.4093    0.8434 C.3       1 <0>        -0.1322
     10 C7         -0.5910    5.0489    2.1746 C.3       1 <0>        -0.1462
     11 C8         -2.0855    5.3542    2.1433 C.3       1 <0>         0.0354
     12 C9         -2.9120    4.2783    1.5750 C.3       1 <0>        -0.1838
     13 C10        -2.5388    4.0395    0.0857 C.3       1 <0>         0.1178
     14 N4         -2.5375    5.6136    3.5167 N.4       1 <0>        -0.6422
     15 N5         -3.2922   -0.9265    0.4869 N.pl3     1 <0>        -0.5557
     16 C11        -3.1826   -2.2990    0.3688 C.2       1 <0>         0.2138
     17 N6         -2.0982   -3.0146    0.1344 N.2       1 <0>        -0.4996
     18 C12        -2.1462   -4.3215    0.0475 C.2       1 <0>         0.1385
     19 C13        -3.3939   -4.9044    0.2149 C.2       1 <0>        -0.1518
     20 S1         -4.3986   -3.4553    0.4967 S.3       1 <0>         0.2767
     21 C14        -3.7707   -6.2855    0.1772 C.1       1 <0>         0.2752
     22 N7         -4.0697   -7.3810    0.1473 N.1       1 <0>        -0.3498
     23 H1         -3.2672    1.7355    0.4152 H         1 <0>         0.1829
     24 H2          1.0369   -0.3762   -0.2803 H         1 <0>         0.2517
     25 H3          0.8527    3.5378    0.1701 H         1 <0>         0.0872
     26 H4          0.1383    4.5240   -1.1188 H         1 <0>         0.1065
     27 H5          1.0475    5.7428    0.9959 H         1 <0>         0.1156
     28 H6         -0.5546    6.2146    0.3871 H         1 <0>         0.0935
     29 H7         -0.4408    3.9868    2.3683 H         1 <0>         0.0906
     30 H8         -0.1169    5.6334    2.9630 H         1 <0>         0.1031
     31 H9         -2.2418    6.2582    1.5547 H         1 <0>         0.1445
     32 H10        -2.7483    3.3608    2.1403 H         1 <0>         0.0969
     33 H11        -3.9635    4.5574    1.6419 H         1 <0>         0.1185
     34 H12        -2.5114    4.9940   -0.4399 H         1 <0>         0.1184
     35 H13        -3.2809    3.3907   -0.3795 H         1 <0>         0.1175
     36 H14        -2.0329    6.4020    3.8936 H         1 <0>         0.4426
     37 H15        -3.5256    5.8175    3.5128 H         1 <0>         0.4402
     38 H16        -4.1446   -0.5262    0.7193 H         1 <0>         0.4534
     39 H17        -1.2628   -4.9124   -0.1443 H         1 <0>         0.2020
     40 H18        -2.3643    4.7996    4.0872 H         1 <0>         0.4346
     41 H19         0.8015    1.9345   -0.2968 H         1 <0>         0.4441
@<TRIPOS>BOND
     1    1    2 ar
     2    1   23 1
     3    1    6 ar
     4    2   15 1
     5    2    3 ar
     6    3    4 ar
     7    4    5 ar
     8    4   24 1
     9    5    6 ar
    10    5   41 1
    11    6    7 1
    12    7   13 1
    13    7    8 1
    14    8    9 1
    15    8   25 1
    16    8   26 1
    17    9   10 1
    18    9   27 1
    19    9   28 1
    20   10   11 1
    21   10   29 1
    22   10   30 1
    23   11   12 1
    24   11   14 1
    25   11   31 1
    26   12   13 1
    27   12   32 1
    28   12   33 1
    29   13   34 1
    30   13   35 1
    31   14   36 1
    32   14   37 1
    33   14   40 1
    34   15   16 1
    35   15   38 1
    36   16   20 1
    37   16   17 2
    38   17   18 1
    39   18   19 2
    40   18   39 1
    41   19   20 1
    42   19   21 1
    43   21   22 3
@<TRIPOS>MOLECULE
CHEMBL204163__5
   41    43     0     0     0
SMALL
USER_CHARGES

@<TRIPOS>ATOM
      1 C1          0.0066    1.3878   -0.2352 C.ar      1 <0>        -0.2973
      2 C2          1.1993    2.0630    0.0044 C.ar      1 <0>         0.4665
      3 N1          2.3067    1.3587    0.2295 N.ar      1 <0>        -0.5620
      4 C3          2.2827    0.0415    0.2268 C.ar      1 <0>         0.4408
      5 N2          1.1741   -0.6344    0.0036 N.ar      1 <0>        -0.5343
      6 C4          0.0243   -0.0038   -0.2290 C.ar      1 <0>         0.4851
      7 N3         -1.1377   -0.7230   -0.4619 N.pl3     1 <0>        -0.5487
      8 C5         -1.0987   -2.1926   -0.3298 C.3       1 <0>         0.0952
      9 C6         -1.8761   -2.8973   -1.4563 C.3       1 <0>        -0.1342
     10 C7         -1.6242   -2.2037   -2.7724 C.3       1 <0>        -0.1440
     11 C8         -2.6951   -1.1404   -2.9966 C.3       1 <0>         0.0347
     12 C9         -2.4051    0.1548   -2.3628 C.3       1 <0>        -0.1779
     13 C10        -2.3392   -0.0022   -0.8183 C.3       1 <0>         0.1077
     14 N4         -2.8466   -0.9287   -4.4424 N.4       1 <0>        -0.6420
     15 N5          1.2343    3.4511    0.0084 N.pl3     1 <0>        -0.5817
     16 C11         0.0588    4.1723   -0.0813 C.2       1 <0>         0.2261
     17 N6         -1.1804    3.7171   -0.0828 N.2       1 <0>        -0.5513
     18 C12        -2.2068    4.5271   -0.1750 C.2       1 <0>         0.1325
     19 C13        -1.9168    5.8804   -0.2700 C.2       1 <0>        -0.1496
     20 S1         -0.1327    5.8394   -0.2071 S.3       1 <0>         0.3264
     21 C14        -2.8027    6.9999   -0.3818 C.1       1 <0>         0.2689
     22 N7         -3.5054    7.8881   -0.4704 N.1       1 <0>        -0.3399
     23 H1         -0.9099    1.9295   -0.4169 H         1 <0>         0.2237
     24 H2          3.1985   -0.5000    0.4125 H         1 <0>         0.2532
     25 H3         -0.0602   -2.5229   -0.3562 H         1 <0>         0.1153
     26 H4         -1.5333   -2.4734    0.6295 H         1 <0>         0.0945
     27 H5         -1.5498   -3.9349   -1.5263 H         1 <0>         0.1114
     28 H6         -2.9423   -2.8700   -1.2315 H         1 <0>         0.0854
     29 H7         -0.6418   -1.7319   -2.7527 H         1 <0>         0.0920
     30 H8         -1.6614   -2.9336   -3.5810 H         1 <0>         0.0994
     31 H9         -3.6410   -1.5137   -2.6042 H         1 <0>         0.1438
     32 H10        -1.4495    0.5299   -2.7292 H         1 <0>         0.0923
     33 H11        -3.1908    0.8657   -2.6187 H         1 <0>         0.1153
     34 H12        -3.2113   -0.5564   -0.4715 H         1 <0>         0.1152
     35 H13        -2.3248    0.9817   -0.3494 H         1 <0>         0.1189
     36 H14        -3.1231   -1.7938   -4.8819 H         1 <0>         0.4417
     37 H15        -3.5526   -0.2270   -4.6074 H         1 <0>         0.4385
     38 H16         2.0839    3.9146    0.0740 H         1 <0>         0.4505
     39 H17        -3.2228    4.1609   -0.1771 H         1 <0>         0.2037
     40 H18        -1.9681   -0.6198   -4.8309 H         1 <0>         0.4335
     41 H19         3.1424    1.8217    0.3974 H         1 <0>         0.4504
@<TRIPOS>BOND
     1    1    6 ar
     2    1    2 ar
     3    1   23 1
     4    2    3 ar
     5    2   15 1
     6    3    4 ar
     7    3   41 1
     8    4    5 ar
     9    4   24 1
    10    5    6 ar
    11    6    7 1
    12    7   13 1
    13    7    8 1
    14    8    9 1
    15    8   25 1
    16    8   26 1
    17    9   10 1
    18    9   27 1
    19    9   28 1
    20   10   11 1
    21   10   29 1
    22   10   30 1
    23   11   12 1
    24   11   14 1
    25   11   31 1
    26   12   13 1
    27   12   32 1
    28   12   33 1
    29   13   34 1
    30   13   35 1
    31   14   36 1
    32   14   37 1
    33   14   40 1
    34   15   16 1
    35   15   38 1
    36   16   20 1
    37   16   17 2
    38   17   18 1
    39   18   19 2
    40   18   39 1
    41   19   20 1
    42   19   21 1
    43   21   22 3
@<TRIPOS>MOLECULE
CHEMBL44915
   45    48     0     0     0
SMALL
USER_CHARGES

@<TRIPOS>ATOM
      1 C1         -0.7427    0.0092   -0.7303 C.3       1 <0>        -0.1157
      2 C2         -1.8472   -0.6352    0.0670 C.ar      1 <0>        -0.0635
      3 C3         -3.1488   -0.5965   -0.3991 C.ar      1 <0>        -0.0870
      4 C4         -4.1651   -1.1865    0.3293 C.ar      1 <0>        -0.1552
      5 C5         -3.8833   -1.8172    1.5254 C.ar      1 <0>        -0.1057
      6 C6         -2.5774   -1.8584    1.9961 C.ar      1 <0>         0.1679
      7 C7         -1.5578   -1.2687    1.2594 C.ar      1 <0>        -0.0839
      8 N1         -2.2887   -2.4956    3.2067 N.pl3     1 <0>        -0.6304
      9 C8         -1.2753   -2.0134    4.0188 C.ar      1 <0>         0.5837
     10 N2         -0.6423   -0.9023    3.6713 N.ar      1 <0>        -0.5497
     11 C9          0.3309   -0.4112    4.4225 C.ar      1 <0>         0.2118
     12 C10         0.6872   -1.0715    5.5844 C.ar      1 <0>        -0.2675
     13 C11         0.0028   -2.2379    5.9231 C.ar      1 <0>         0.4289
     14 N3         -0.9668   -2.6715    5.1259 N.ar      1 <0>        -0.5567
     15 N4          0.3282   -2.9365    7.0853 N.pl3     1 <0>        -0.4169
     16 C12         0.4041   -2.4208    8.3546 C.2       1 <0>        -0.0378
     17 C13         0.7470   -3.4358    9.1726 C.2       1 <0>        -0.0065
     18 N5          0.8802   -4.5466    8.4378 N.2       1 <0>        -0.4647
     19 C14         0.6268   -4.2684    7.1787 C.2       1 <0>         0.2779
     20 C15         0.6619   -5.2291    6.0553 C.ar      1 <0>        -0.0172
     21 C16         0.7723   -4.7686    4.7425 C.ar      1 <0>        -0.0916
     22 C17         0.8045   -5.6703    3.6988 C.ar      1 <0>        -0.1198
     23 C18         0.7275   -7.0284    3.9514 C.ar      1 <0>        -0.1038
     24 C19         0.6175   -7.4915    5.2505 C.ar      1 <0>        -0.1193
     25 C20         0.5905   -6.6006    6.3036 C.ar      1 <0>        -0.0728
     26 C21        -5.5820   -1.1410   -0.1820 C.3       1 <0>         0.5099
     27 F1         -5.8243   -2.2607   -0.9848 F         1 <0>        -0.1747
     28 F2         -6.4686   -1.1425    0.9002 F         1 <0>        -0.1764
     29 F3         -5.7685    0.0226   -0.9360 F         1 <0>        -0.1746
     30 H1         -0.3263   -0.7177   -1.4277 H         1 <0>         0.0763
     31 H2         -1.1428    0.8576   -1.2856 H         1 <0>         0.0729
     32 H3          0.0399    0.3538   -0.0544 H         1 <0>         0.0728
     33 H4         -3.3719   -0.1040   -1.3340 H         1 <0>         0.1382
     34 H5         -4.6777   -2.2776    2.0941 H         1 <0>         0.1388
     35 H6         -0.5406   -1.3025    1.6206 H         1 <0>         0.1456
     36 H7         -2.7980   -3.2753    3.4778 H         1 <0>         0.4290
     37 H8          0.8414    0.4949    4.1310 H         1 <0>         0.1864
     38 H9          1.4778   -0.6923    6.2149 H         1 <0>         0.1579
     39 H10         0.2238   -1.3959    8.6434 H         1 <0>         0.1854
     40 H11         0.8904   -3.3648   10.2407 H         1 <0>         0.1840
     41 H12         0.8321   -3.7087    4.5440 H         1 <0>         0.1071
     42 H13         0.8895   -5.3152    2.6824 H         1 <0>         0.1227
     43 H14         0.7531   -7.7302    3.1308 H         1 <0>         0.1267
     44 H15         0.5571   -8.5529    5.4409 H         1 <0>         0.1310
     45 H16         0.5098   -6.9636    7.3176 H         1 <0>         0.1362
@<TRIPOS>BOND
     1    1    2 1
     2    1   30 1
     3    1   31 1
     4    1   32 1
     5    2    7 ar
     6    2    3 ar
     7    3    4 ar
     8    3   33 1
     9    4    5 ar
    10    4   26 1
    11    5    6 ar
    12    5   34 1
    13    6    7 ar
    14    6    8 1
    15    7   35 1
    16    8    9 1
    17    8   36 1
    18    9   14 ar
    19    9   10 ar
    20   10   11 ar
    21   11   12 ar
    22   11   37 1
    23   12   13 ar
    24   12   38 1
    25   13   14 ar
    26   13   15 1
    27   15   19 1
    28   15   16 1
    29   16   17 2
    30   16   39 1
    31   17   18 1
    32   17   40 1
    33   18   19 2
    34   19   20 1
    35   20   25 ar
    36   20   21 ar
    37   21   22 ar
    38   21   41 1
    39   22   23 ar
    40   22   42 1
    41   23   24 ar
    42   23   43 1
    43   24   25 ar
    44   24   44 1
    45   25   45 1
    46   26   27 1
    47   26   28 1
    48   26   29 1
@<TRIPOS>MOLECULE
CHEMBL333021
   54    58     0     0     0
SMALL
USER_CHARGES

@<TRIPOS>ATOM
      1 C1          0.0439    1.0576    0.0476 C.ar      1 <0>        -0.0554
      2 C2          1.1881    1.8266    0.0059 C.ar      1 <0>        -0.1370
      3 C3          2.4358    1.2185    0.0265 C.ar      1 <0>         0.1220
      4 C4          2.5359   -0.1647    0.0891 C.ar      1 <0>        -0.1995
      5 C5          1.3952   -0.9388    0.1315 C.ar      1 <0>        -0.0588
      6 C6          0.1412   -0.3311    0.1110 C.ar      1 <0>        -0.0568
      7 C7         -1.0881   -1.1613    0.1565 C.2       1 <0>        -0.1608
      8 C8         -1.9650   -1.0801    1.2606 C.2       1 <0>         0.1926
      9 N1         -3.0493   -1.8164    1.2953 N.2       1 <0>        -0.4456
     10 C9         -3.3468   -2.6530    0.2947 C.2       1 <0>         0.2614
     11 C10        -4.4152   -3.5319    0.0859 C.2       1 <0>        -0.1631
     12 C11        -4.2038   -4.1579   -1.1452 C.2       1 <0>         0.1111
     13 N2         -3.0878   -3.7048   -1.6664 N.2       1 <0>        -0.3019
     14 N3         -2.5237   -2.7639   -0.7977 N.pl3     1 <0>        -0.3132
     15 C12        -1.3882   -2.0094   -0.8719 C.2       1 <0>         0.1858
     16 C13        -5.5606   -3.7577    1.0025 C.2       1 <0>        -0.0422
     17 C14        -6.8684   -3.7172    0.5296 C.2       1 <0>        -0.1481
     18 C15        -7.8860   -3.9284    1.3957 C.2       1 <0>        -0.1697
     19 S1         -7.0229   -4.1965    2.9347 S.3       1 <0>         0.0423
     20 C16        -5.3539   -4.0155    2.3281 C.2       1 <0>        -0.1523
     21 O1          3.5615    1.9786   -0.0152 O.3       1 <0>        -0.3271
     22 C17         4.8121    1.2878    0.0092 C.3       1 <0>         0.0248
     23 C18         5.9562    2.3022   -0.0443 C.3       1 <0>        -0.0011
     24 N4          5.9222    3.1426    1.1601 N.4       1 <0>        -0.3842
     25 C19         6.9192    4.2128    1.0365 C.3       1 <0>        -0.0071
     26 C20         6.8324    5.1387    2.2516 C.3       1 <0>        -0.1468
     27 C21         7.1044    4.3300    3.5233 C.3       1 <0>        -0.1392
     28 C22         6.1054    3.1721    3.6034 C.3       1 <0>        -0.1454
     29 C23         6.2191    2.3190    2.3382 C.3       1 <0>        -0.0132
     30 H1         -0.9266    1.5315    0.0357 H         1 <0>         0.1405
     31 H2          1.1133    2.9029   -0.0432 H         1 <0>         0.1384
     32 H3          3.5080   -0.6351    0.1042 H         1 <0>         0.1317
     33 H4          1.4737   -2.0149    0.1798 H         1 <0>         0.1336
     34 H5         -1.7419   -0.4105    2.0781 H         1 <0>         0.1806
     35 H6         -4.8529   -4.8950   -1.5945 H         1 <0>         0.2043
     36 H7         -0.7349   -2.0850   -1.7285 H         1 <0>         0.1800
     37 H8         -7.0683   -3.5197   -0.5132 H         1 <0>         0.1341
     38 H9         -8.9490   -3.9332    1.2047 H         1 <0>         0.1878
     39 H10        -4.4221   -4.0895    2.8691 H         1 <0>         0.1807
     40 H11         4.8868    0.7039    0.9266 H         1 <0>         0.0876
     41 H12         4.8763    0.6220   -0.8515 H         1 <0>         0.1104
     42 H13         6.9084    1.7738   -0.0918 H         1 <0>         0.1494
     43 H14         5.8444    2.9297   -0.9285 H         1 <0>         0.1429
     44 H15         7.9163    3.7755    0.9839 H         1 <0>         0.1293
     45 H16         6.7263    4.7855    0.1293 H         1 <0>         0.1312
     46 H17         7.5746    5.9316    2.1588 H         1 <0>         0.1132
     47 H18         5.8357    5.5768    2.3050 H         1 <0>         0.0882
     48 H19         8.1195    3.9341    3.4934 H         1 <0>         0.0821
     49 H20         6.9881    4.9727    4.3959 H         1 <0>         0.0949
     50 H21         6.3279    2.5592    4.4769 H         1 <0>         0.1124
     51 H22         5.0936    3.5693    3.6849 H         1 <0>         0.0881
     52 H23         5.5092    1.4935    2.3921 H         1 <0>         0.1272
     53 H24         7.2311    1.9221    2.2579 H         1 <0>         0.1303
     54 H25         5.0045    3.5504    1.2586 H         1 <0>         0.4293
@<TRIPOS>BOND
     1    1    6 ar
     2    1    2 ar
     3    1   30 1
     4    2    3 ar
     5    2   31 1
     6    3    4 ar
     7    3   21 1
     8    4    5 ar
     9    4   32 1
    10    5    6 ar
    11    5   33 1
    12    6    7 1
    13    7   15 2
    14    7    8 1
    15    8    9 2
    16    8   34 1
    17    9   10 1
    18   10   14 1
    19   10   11 2
    20   11   12 1
    21   11   16 1
    22   12   13 2
    23   12   35 1
    24   13   14 1
    25   14   15 1
    26   15   36 1
    27   16   20 2
    28   16   17 1
    29   17   18 2
    30   17   37 1
    31   18   19 1
    32   18   38 1
    33   19   20 1
    34   20   39 1
    35   21   22 1
    36   22   23 1
    37   22   40 1
    38   22   41 1
    39   23   24 1
    40   23   42 1
    41   23   43 1
    42   24   29 1
    43   24   25 1
    44   24   54 1
    45   25   26 1
    46   25   44 1
    47   25   45 1
    48   26   27 1
    49   26   46 1
    50   26   47 1
    51   27   28 1
    52   27   48 1
    53   27   49 1
    54   28   29 1
    55   28   50 1
    56   28   51 1
    57   29   52 1
    58   29   53 1
@<TRIPOS>MOLECULE
CHEMBL92516
   30    33     0     0     0
SMALL
USER_CHARGES

@<TRIPOS>ATOM
      1 C1         -0.0169    1.3937    0.0097 C.ar      1 <0>        -0.1530
      2 C2          1.1801    2.0793    0.0020 C.ar      1 <0>         0.1063
      3 N1          2.3305    1.4332   -0.0125 N.ar      1 <0>        -0.4798
      4 C3          2.3923    0.1152   -0.0202 C.ar      1 <0>         0.1063
      5 C4          1.2430   -0.6476   -0.0133 C.ar      1 <0>        -0.1561
      6 C5          0.0021   -0.0041    0.0020 C.ar      1 <0>         0.0048
      7 C6         -1.2602   -0.7832    0.0104 C.2       1 <0>        -0.1589
      8 C7         -2.1309   -0.7220    1.1212 C.2       1 <0>         0.1995
      9 N2         -3.2447   -1.4133    1.1226 N.2       1 <0>        -0.4488
     10 C8         -3.5787   -2.1847    0.0817 C.2       1 <0>         0.2649
     11 C9         -4.6829   -3.0063   -0.1673 C.2       1 <0>        -0.1698
     12 C10        -4.5002   -3.5770   -1.4299 C.2       1 <0>         0.1103
     13 N3         -3.3675   -3.1447   -1.9318 N.2       1 <0>        -0.3028
     14 N4         -2.7629   -2.2737   -1.0185 N.pl3     1 <0>        -0.3120
     15 C11        -1.5978   -1.5647   -1.0589 C.2       1 <0>         0.1888
     16 C12        -5.8350   -3.2309    0.7412 C.2       1 <0>        -0.0401
     17 C13        -7.1409   -3.1119    0.2764 C.2       1 <0>        -0.1460
     18 C14        -8.1647   -3.3242    1.1348 C.2       1 <0>        -0.1727
     19 S1         -7.3105   -3.7059    2.6546 S.3       1 <0>         0.0373
     20 C15        -5.6366   -3.5646    2.0510 C.2       1 <0>        -0.1503
     21 H1         -0.9548    1.9290    0.0260 H         1 <0>         0.1400
     22 H2          1.1757    3.1592    0.0074 H         1 <0>         0.1620
     23 H3          3.3557   -0.3729   -0.0323 H         1 <0>         0.1614
     24 H4          1.3010   -1.7260   -0.0196 H         1 <0>         0.1382
     25 H5         -1.8783   -0.1049    1.9708 H         1 <0>         0.1832
     26 H6         -5.1803   -4.2625   -1.9136 H         1 <0>         0.2031
     27 H7         -0.9499   -1.6237   -1.9209 H         1 <0>         0.1825
     28 H8         -7.3344   -2.8535   -0.7543 H         1 <0>         0.1337
     29 H9         -9.2273   -3.2749    0.9481 H         1 <0>         0.1867
     30 H10        -4.7077   -3.7049    2.5838 H         1 <0>         0.1814
@<TRIPOS>BOND
     1    1    6 ar
     2    1    2 ar
     3    1   21 1
     4    2    3 ar
     5    2   22 1
     6    3    4 ar
     7    4    5 ar
     8    4   23 1
     9    5    6 ar
    10    5   24 1
    11    6    7 1
    12    7   15 2
    13    7    8 1
    14    8    9 2
    15    8   25 1
    16    9   10 1
    17   10   14 1
    18   10   11 2
    19   11   12 1
    20   11   16 1
    21   12   13 2
    22   12   26 1
    23   13   14 1
    24   14   15 1
    25   15   27 1
    26   16   20 2
    27   16   17 1
    28   17   18 2
    29   17   28 1
    30   18   19 1
    31   18   29 1
    32   19   20 1
    33   20   30 1
@<TRIPOS>MOLECULE
CHEMBL387590
   61    66     0     0     0
SMALL
USER_CHARGES

@<TRIPOS>ATOM
      1 C1          2.7058   -7.6768   -2.5094 C.3       1 <0>        -0.0456
      2 N1          2.1018   -6.6612   -1.6366 N.4       1 <0>        -0.3880
      3 C2          3.0260   -5.5288   -1.4913 C.3       1 <0>        -0.0022
      4 C3          2.3895   -4.4622   -0.5974 C.3       1 <0>         0.0271
      5 N2          2.0904   -5.0447    0.7184 N.3       1 <0>        -0.5307
      6 C4          1.1856   -6.1954    0.5864 C.3       1 <0>         0.0235
      7 C5          1.8320   -7.2477   -0.3173 C.3       1 <0>        -0.0019
      8 C6          1.5290   -4.0350    1.6258 C.3       1 <0>         0.0975
      9 C7          1.6049   -4.5371    3.0447 C.ar      1 <0>        -0.0575
     10 C8          0.4539   -4.9269    3.7011 C.ar      1 <0>        -0.1321
     11 C9          0.5246   -5.3895    5.0086 C.ar      1 <0>         0.1675
     12 C10         1.7534   -5.4587    5.6527 C.ar      1 <0>        -0.1255
     13 C11         2.9009   -5.0677    4.9917 C.ar      1 <0>        -0.0748
     14 C12         2.8283   -4.6124    3.6867 C.ar      1 <0>        -0.0295
     15 Cl1         4.2739   -4.1283    2.8562 Cl        1 <0>        -0.0527
     16 N3         -0.6395   -5.7845    5.6760 N.pl3     1 <0>        -0.6119
     17 C13        -0.7232   -5.6631    7.0459 C.2       1 <0>         0.4928
     18 N4         -1.7162   -6.0993    7.7780 N.2       1 <0>        -0.5101
     19 C14        -1.4588   -5.8062    9.0822 C.ar      1 <0>         0.0690
     20 C15        -2.1512   -6.0279   10.2732 C.ar      1 <0>        -0.0814
     21 C16        -1.6099   -5.5973   11.4702 C.ar      1 <0>         0.0963
     22 C17        -0.3809   -4.9459   11.4899 C.ar      1 <0>        -0.0998
     23 C18         0.3099   -4.7224   10.3166 C.ar      1 <0>        -0.0633
     24 C19        -0.2199   -5.1486    9.1094 C.ar      1 <0>         0.0015
     25 O1          0.2064   -5.0842    7.8262 O.3       1 <0>        -0.2198
     26 O2         -2.2816   -5.8110   12.6327 O.3       1 <0>        -0.2407
     27 C20        -2.2063   -7.0437   13.1945 C.ar      1 <0>         0.2096
     28 C21        -1.5543   -8.0867   12.5485 C.ar      1 <0>        -0.2843
     29 C22        -1.4983   -9.3296   13.1541 C.ar      1 <0>         0.1762
     30 N5         -2.0487   -9.5507   14.3300 N.ar      1 <0>        -0.5151
     31 C23        -2.6851   -8.5942   14.9960 C.ar      1 <0>         0.3167
     32 C24        -2.7789   -7.3030   14.4478 C.ar      1 <0>        -0.1761
     33 C25        -3.5220   -6.4982   15.4185 C.2       1 <0>        -0.1769
     34 C26        -3.8161   -7.3055   16.4496 C.2       1 <0>         0.0556
     35 N6         -3.3303   -8.5637   16.2086 N.pl3     1 <0>        -0.5777
     36 H1         -3.4195   -9.3192   16.8105 H         1 <0>         0.4245
     37 H2          2.0196   -8.5167   -2.6184 H         1 <0>         0.1240
     38 H3          2.9061   -7.2418   -3.4886 H         1 <0>         0.1243
     39 H4          3.6398   -8.0256   -2.0688 H         1 <0>         0.1231
     40 H5          3.9556   -5.8743   -1.0391 H         1 <0>         0.1382
     41 H6          3.2356   -5.1027   -2.4724 H         1 <0>         0.1363
     42 H7          3.0811   -3.6284   -0.4773 H         1 <0>         0.1248
     43 H8          1.4668   -4.1067   -1.0560 H         1 <0>         0.0623
     44 H9          0.9990   -6.6260    1.5702 H         1 <0>         0.1224
     45 H10         0.2431   -5.8685    0.1473 H         1 <0>         0.0620
     46 H11         1.1565   -8.0959   -0.4280 H         1 <0>         0.1353
     47 H12         2.7678   -7.5843    0.1289 H         1 <0>         0.1379
     48 H13         2.0984   -3.1098    1.5368 H         1 <0>         0.1040
     49 H14         0.4882   -3.8479    1.3618 H         1 <0>         0.0631
     50 H15        -0.5003   -4.8717    3.1982 H         1 <0>         0.1382
     51 H16         1.8111   -5.8177    6.6697 H         1 <0>         0.1421
     52 H17         3.8565   -5.1210    5.4921 H         1 <0>         0.1442
     53 H18        -1.3879   -6.1439    5.1744 H         1 <0>         0.4438
     54 H19        -3.1057   -6.5331   10.2600 H         1 <0>         0.1473
     55 H20         0.0349   -4.6127   12.4293 H         1 <0>         0.1542
     56 H21         1.2632   -4.2154   10.3392 H         1 <0>         0.1477
     57 H22        -1.0962   -7.9291   11.5832 H         1 <0>         0.1397
     58 H23        -0.9909  -10.1387   12.6497 H         1 <0>         0.1652
     59 H24        -3.7832   -5.4546   15.3234 H         1 <0>         0.1544
     60 H25        -4.3623   -7.0099   17.3331 H         1 <0>         0.1828
     61 H26         1.2370   -6.3389   -2.0444 H         1 <0>         0.4223
@<TRIPOS>BOND
     1    1    2 1
     2    1   37 1
     3    1   38 1
     4    1   39 1
     5    2    7 1
     6    2    3 1
     7    2   61 1
     8    3    4 1
     9    3   40 1
    10    3   41 1
    11    4    5 1
    12    4   42 1
    13    4   43 1
    14    5    6 1
    15    5    8 1
    16    6    7 1
    17    6   44 1
    18    6   45 1
    19    7   46 1
    20    7   47 1
    21    8    9 1
    22    8   48 1
    23    8   49 1
    24    9   14 ar
    25    9   10 ar
    26   10   11 ar
    27   10   50 1
    28   11   12 ar
    29   11   16 1
    30   12   13 ar
    31   12   51 1
    32   13   14 ar
    33   13   52 1
    34   14   15 1
    35   16   17 1
    36   16   53 1
    37   17   25 1
    38   17   18 2
    39   18   19 1
    40   19   24 ar
    41   19   20 ar
    42   20   21 ar
    43   20   54 1
    44   21   22 ar
    45   21   26 1
    46   22   23 ar
    47   22   55 1
    48   23   24 ar
    49   23   56 1
    50   24   25 1
    51   26   27 1
    52   27   32 ar
    53   27   28 ar
    54   28   29 ar
    55   28   57 1
    56   29   30 ar
    57   29   58 1
    58   30   31 ar
    59   31   35 1
    60   31   32 ar
    61   32   33 1
    62   33   34 2
    63   33   59 1
    64   34   35 1
    65   34   60 1
    66   35   36 1
@<TRIPOS>MOLECULE
CHEMBL223147
   50    54     0     0     0
SMALL
USER_CHARGES

@<TRIPOS>ATOM
      1 C1         -0.0187    1.5258    0.0104 C.3       1 <0>        -0.1702
      2 C2          0.0021   -0.0041    0.0020 C.3       1 <0>         0.1051
      3 N1         -1.3723   -0.5112    0.0124 N.am      1 <0>        -0.5474
      4 C3         -2.0942   -0.7819    1.1785 C.ar      1 <0>         0.1176
      5 C4         -1.7331   -0.6561    2.5120 C.ar      1 <0>        -0.0863
      6 C5         -2.6455   -0.9966    3.5123 C.ar      1 <0>        -0.0758
      7 C6         -3.9272   -1.4621    3.1735 C.ar      1 <0>         0.1014
      8 C7         -4.2753   -1.5848    1.8316 C.ar      1 <0>        -0.0749
      9 C8         -3.3686   -1.2485    0.8560 C.ar      1 <0>        -0.0985
     10 C9         -3.4413   -1.2702   -0.6545 C.3       1 <0>        -0.0509
     11 C10        -2.0856   -0.7639   -1.0975 C.2       1 <0>         0.5345
     12 O1         -1.7120   -0.6157   -2.2419 O.2       1 <0>        -0.4990
     13 C11        -3.6768   -2.6953   -1.1590 C.3       1 <0>        -0.1263
     14 C12        -4.5459   -0.3353   -1.1511 C.3       1 <0>        -0.1267
     15 N2         -4.5954   -1.7088    4.3502 N.pl3     1 <0>        -0.5876
     16 H1         -5.5057   -2.0378    4.4140 H         1 <0>         0.4204
     17 C13        -3.7783   -1.4188    5.4310 C.2       1 <0>         0.1641
     18 C14        -2.5822   -0.9858    4.9804 C.2       1 <0>        -0.1210
     19 C15        -1.3799   -0.5668    5.7667 C.3       1 <0>        -0.0471
     20 C16        -1.7055    0.1036    7.0685 C.3       1 <0>        -0.1144
     21 C17        -2.1212   -0.8314    8.1683 C.3       1 <0>        -0.0432
     22 C18        -3.5246   -1.3305    8.0204 C.2       1 <0>        -0.2006
     23 C19        -4.2281   -1.5849    6.8332 C.2       1 <0>         0.1385
     24 N3         -5.4351   -2.0213    7.1624 N.2       1 <0>        -0.2975
     25 N4         -5.5237   -2.0488    8.5576 N.pl3     1 <0>        -0.4585
     26 H2         -6.2966   -2.3262    9.0739 H         1 <0>         0.4422
     27 C20        -4.3476   -1.6225    9.0598 C.2       1 <0>         0.0883
     28 C21        -4.0055   -1.4928   10.5218 C.3       1 <0>        -0.0964
     29 H3          1.0039    1.9031    0.0027 H         1 <0>         0.0732
     30 H4         -0.5459    1.8868   -0.8726 H         1 <0>         0.0602
     31 H5         -0.5289    1.8773    0.9072 H         1 <0>         0.0612
     32 H6          0.5123   -0.3556   -0.8948 H         1 <0>         0.0892
     33 H7          0.5293   -0.3651    0.8851 H         1 <0>         0.0859
     34 H8         -0.7495   -0.2962    2.7754 H         1 <0>         0.1276
     35 H9         -5.2566   -1.9433    1.5579 H         1 <0>         0.1286
     36 H10        -4.6153   -3.0737   -0.7538 H         1 <0>         0.0723
     37 H11        -3.7264   -2.6917   -2.2479 H         1 <0>         0.0714
     38 H12        -2.8566   -3.3358   -0.8347 H         1 <0>         0.0610
     39 H13        -4.3362    0.6822   -0.8213 H         1 <0>         0.0606
     40 H14        -4.5836   -0.3638   -2.2401 H         1 <0>         0.0715
     41 H15        -5.5048   -0.6583   -0.7458 H         1 <0>         0.0721
     42 H16        -0.7746   -1.4496    5.9725 H         1 <0>         0.0729
     43 H17        -0.7905    0.1206    5.1600 H         1 <0>         0.0750
     44 H18        -0.8273    0.6575    7.4003 H         1 <0>         0.0726
     45 H19        -2.5131    0.8154    6.8974 H         1 <0>         0.0625
     46 H20        -1.4447   -1.6860    8.1755 H         1 <0>         0.0704
     47 H21        -2.0336   -0.3108    9.1220 H         1 <0>         0.0731
     48 H22        -4.2714   -0.4947   10.8700 H         1 <0>         0.0845
     49 H23        -4.5614   -2.2367   11.0924 H         1 <0>         0.0740
     50 H24        -2.9363   -1.6531   10.6604 H         1 <0>         0.0904
@<TRIPOS>BOND
     1    1    2 1
     2    1   29 1
     3    1   30 1
     4    1   31 1
     5    2    3 1
     6    2   32 1
     7    2   33 1
     8    3   11 am
     9    3    4 1
    10    4    9 ar
    11    4    5 ar
    12    5    6 ar
    13    5   34 1
    14    6   18 1
    15    6    7 ar
    16    7    8 ar
    17    7   15 1
    18    8    9 ar
    19    8   35 1
    20    9   10 1
    21   10   11 1
    22   10   13 1
    23   10   14 1
    24   11   12 2
    25   13   36 1
    26   13   37 1
    27   13   38 1
    28   14   39 1
    29   14   40 1
    30   14   41 1
    31   15   16 1
    32   15   17 1
    33   17   23 1
    34   17   18 2
    35   18   19 1
    36   19   20 1
    37   19   42 1
    38   19   43 1
    39   20   21 1
    40   20   44 1
    41   20   45 1
    42   21   22 1
    43   21   46 1
    44   21   47 1
    45   22   27 2
    46   22   23 1
    47   23   24 2
    48   24   25 1
    49   25   26 1
    50   25   27 1
    51   27   28 1
    52   28   48 1
    53   28   49 1
    54   28   50 1
@<TRIPOS>MOLECULE
CHEMBL223147__1
   50    54     0     0     0
SMALL
USER_CHARGES

@<TRIPOS>ATOM
      1 C1         -0.0187    1.5258    0.0104 C.3       1 <0>        -0.1704
      2 C2          0.0021   -0.0041    0.0020 C.3       1 <0>         0.1047
      3 N1          0.7106   -0.4894    1.1889 N.am      1 <0>        -0.5477
      4 C3          2.0878   -0.7256    1.2322 C.ar      1 <0>         0.1212
      5 C4          3.0579   -0.5791    0.2518 C.ar      1 <0>        -0.0858
      6 C5          4.3889   -0.8855    0.5431 C.ar      1 <0>        -0.0755
      7 C6          4.7486   -1.3397    1.8234 C.ar      1 <0>         0.1047
      8 C7          3.7642   -1.4806    2.7971 C.ar      1 <0>        -0.0762
      9 C8          2.4576   -1.1780    2.4988 C.ar      1 <0>        -0.0953
     10 C9          1.1866   -1.2285    3.3170 C.3       1 <0>        -0.0514
     11 C10         0.1127   -0.7531    2.3623 C.2       1 <0>         0.5345
     12 O1         -1.0687   -0.6347    2.6102 O.2       1 <0>        -0.4965
     13 C11         0.9038   -2.6591    3.7796 C.3       1 <0>        -0.1266
     14 C12         1.2848   -0.2853    4.5177 C.3       1 <0>        -0.1270
     15 N2          6.1067   -1.5585    1.8121 N.pl3     1 <0>        -0.6013
     16 H1          6.6250   -1.8747    2.5686 H         1 <0>         0.4122
     17 C13         6.6269   -1.2614    0.5611 C.2       1 <0>         0.1365
     18 C14         5.6263   -0.8428   -0.2464 C.2       1 <0>        -0.1059
     19 C15         5.6976   -0.4021   -1.6747 C.3       1 <0>        -0.0510
     20 C16         6.7419   -1.1204   -2.4787 C.3       1 <0>        -0.1167
     21 C17         8.1492   -0.6596   -2.2257 C.3       1 <0>        -0.0456
     22 C18         8.7169   -1.1653   -0.9365 C.2       1 <0>        -0.1849
     23 C19         8.0593   -1.4121    0.2404 C.2       1 <0>         0.1414
     24 N3          8.9940   -1.8542    1.1413 N.pl3     1 <0>        -0.4872
     25 N4         10.2326   -1.8823    0.4930 N.2       1 <0>        -0.2735
     26 H2          8.8260   -2.1025    2.0638 H         1 <0>         0.4359
     27 C20        10.0698   -1.4743   -0.7370 C.2       1 <0>         0.0802
     28 C21        11.1582   -1.3551   -1.7725 C.3       1 <0>        -0.0776
     29 H3          1.0039    1.9031    0.0027 H         1 <0>         0.0611
     30 H4         -0.5459    1.8868   -0.8726 H         1 <0>         0.0740
     31 H5         -0.5289    1.8773    0.9072 H         1 <0>         0.0605
     32 H6         -1.0205   -0.3814    0.0098 H         1 <0>         0.0901
     33 H7          0.5123   -0.3556   -0.8948 H         1 <0>         0.0862
     34 H8          2.7851   -0.2297   -0.7330 H         1 <0>         0.1295
     35 H9          4.0268   -1.8283    3.7854 H         1 <0>         0.1294
     36 H10         1.7332   -3.0138    4.3916 H         1 <0>         0.0723
     37 H11        -0.0143   -2.6763    4.3669 H         1 <0>         0.0725
     38 H12         0.7911   -3.3066    2.9100 H         1 <0>         0.0613
     39 H13         1.4397    0.7349    4.1667 H         1 <0>         0.0610
     40 H14         0.3615   -0.3347    5.0950 H         1 <0>         0.0725
     41 H15         2.1231   -0.5843    5.1470 H         1 <0>         0.0722
     42 H16         4.7256   -0.5684   -2.1390 H         1 <0>         0.0773
     43 H17         5.9134    0.6660   -1.6989 H         1 <0>         0.0763
     44 H18         6.6809   -2.1848   -2.2520 H         1 <0>         0.0629
     45 H19         6.5184   -0.9830   -3.5367 H         1 <0>         0.0752
     46 H20         8.7817   -1.0025   -3.0445 H         1 <0>         0.0788
     47 H21         8.1622    0.4301   -2.2076 H         1 <0>         0.0733
     48 H22        11.5978   -0.3588   -1.7245 H         1 <0>         0.0809
     49 H23        11.9282   -2.1017   -1.5779 H         1 <0>         0.0759
     50 H24        10.7360   -1.5186   -2.7640 H         1 <0>         0.0817
@<TRIPOS>BOND
     1    1    2 1
     2    1   29 1
     3    1   30 1
     4    1   31 1
     5    2    3 1
     6    2   32 1
     7    2   33 1
     8    3   11 am
     9    3    4 1
    10    4    9 ar
    11    4    5 ar
    12    5    6 ar
    13    5   34 1
    14    6   18 1
    15    6    7 ar
    16    7    8 ar
    17    7   15 1
    18    8    9 ar
    19    8   35 1
    20    9   10 1
    21   10   11 1
    22   10   13 1
    23   10   14 1
    24   11   12 2
    25   13   36 1
    26   13   37 1
    27   13   38 1
    28   14   39 1
    29   14   40 1
    30   14   41 1
    31   15   16 1
    32   15   17 1
    33   17   18 2
    34   17   23 1
    35   18   19 1
    36   19   20 1
    37   19   42 1
    38   19   43 1
    39   20   21 1
    40   20   44 1
    41   20   45 1
    42   21   46 1
    43   21   47 1
    44   21   22 1
    45   22   27 1
    46   22   23 2
    47   23   24 1
    48   24   25 1
    49   24   26 1
    50   25   27 2
    51   27   28 1
    52   28   48 1
    53   28   49 1
    54   28   50 1
@<TRIPOS>MOLECULE
CHEMBL1087127
   63    67     0     0     0
SMALL
USER_CHARGES

@<TRIPOS>ATOM
      1 C1          2.2358    1.2896    0.6266 C.3       1 <0>        -0.1189
      2 C2          2.4078   -0.1980    0.7954 C.ar      1 <0>        -0.1011
      3 C3          3.1199   -0.9201   -0.1441 C.ar      1 <0>        -0.0970
      4 C4          3.2813   -2.2825    0.0032 C.ar      1 <0>        -0.1099
      5 C5          2.7248   -2.9365    1.1044 C.ar      1 <0>        -0.1129
      6 C6          2.0069   -2.2080    2.0525 C.ar      1 <0>        -0.0947
      7 C7          1.8548   -0.8384    1.8980 C.ar      1 <0>         0.1646
      8 N1          1.1407   -0.1025    2.8486 N.pl3     1 <0>        -0.6355
      9 C8          0.4445   -0.7548    3.8454 C.2       1 <0>         0.5393
     10 N2          0.2791   -2.0512    3.9233 N.2       1 <0>        -0.4988
     11 C9         -0.4543   -2.3542    5.0270 C.ar      1 <0>         0.0766
     12 C10        -0.9122   -3.5555    5.5738 C.ar      1 <0>        -0.0733
     13 C11        -1.6540   -3.5402    6.7338 C.ar      1 <0>        -0.1118
     14 C12        -1.9503   -2.3407    7.3639 C.ar      1 <0>        -0.1096
     15 C13        -1.5057   -1.1457    6.8361 C.ar      1 <0>        -0.0845
     16 C14        -0.7574   -1.1426    5.6694 C.ar      1 <0>         0.0553
     17 N3         -0.1719   -0.1436    4.9048 N.pl3     1 <0>        -0.4528
     18 C15        -0.2072    1.2252    5.1645 C.ar      1 <0>         0.4349
     19 C16        -0.2562    2.1399    4.1191 C.ar      1 <0>        -0.3263
     20 C17        -0.2900    3.4967    4.4308 C.ar      1 <0>         0.4708
     21 N4         -0.2742    3.8660    5.7099 N.ar      1 <0>        -0.5809
     22 C18        -0.2274    2.9672    6.6720 C.ar      1 <0>         0.3799
     23 N5         -0.1999    1.6750    6.4169 N.ar      1 <0>        -0.5670
     24 N6         -0.3388    4.4486    3.4245 N.pl3     1 <0>        -0.8267
     25 C19         2.8958   -4.3961    1.2644 C.2       1 <0>         0.5599
     26 O1          2.4106   -4.9633    2.2238 O.2       1 <0>        -0.5033
     27 N7          3.5897   -5.0979    0.3466 N.am      1 <0>        -0.6713
     28 C20         3.8333   -6.4605    0.5459 C.ar      1 <0>         0.1463
     29 C21         5.0340   -7.0212    0.1291 C.ar      1 <0>        -0.1500
     30 C22         5.2716   -8.3669    0.3279 C.ar      1 <0>        -0.0994
     31 C23         4.3155   -9.1564    0.9407 C.ar      1 <0>        -0.1292
     32 C24         3.1194   -8.6014    1.3566 C.ar      1 <0>        -0.0576
     33 C25         2.8778   -7.2548    1.1660 C.ar      1 <0>        -0.1167
     34 C26         2.0803   -9.4655    2.0235 C.3       1 <0>        -0.0580
     35 C27         1.6573  -10.5834    1.0683 C.3       1 <0>        -0.1437
     36 C28         2.6671  -10.0777    3.2970 C.3       1 <0>        -0.1439
     37 H1          3.0615    1.8084    1.1138 H         1 <0>         0.0766
     38 H2          2.2276    1.5363   -0.4351 H         1 <0>         0.0811
     39 H3          1.2941    1.6002    1.0791 H         1 <0>         0.0564
     40 H4          3.5510   -0.4162   -0.9965 H         1 <0>         0.1358
     41 H5          3.8376   -2.8432   -0.7333 H         1 <0>         0.1266
     42 H6          1.5739   -2.7084    2.9061 H         1 <0>         0.1966
     43 H7          1.1346    0.8666    2.8073 H         1 <0>         0.4196
     44 H8         -0.6854   -4.4931    5.0881 H         1 <0>         0.1354
     45 H9         -2.0081   -4.4691    7.1559 H         1 <0>         0.1335
     46 H10        -2.5330   -2.3419    8.2732 H         1 <0>         0.1333
     47 H11        -1.7403   -0.2149    7.3311 H         1 <0>         0.1297
     48 H12        -0.2674    1.8070    3.0917 H         1 <0>         0.1416
     49 H13        -0.2158    3.2993    7.6996 H         1 <0>         0.2107
     50 H14        -0.3497    4.1716    2.4949 H         1 <0>         0.4144
     51 H15        -0.3622    5.3918    3.6497 H         1 <0>         0.4150
     52 H16         3.9202   -4.6579   -0.4522 H         1 <0>         0.4093
     53 H17         5.7807   -6.4054   -0.3501 H         1 <0>         0.1236
     54 H18         6.2049   -8.8034    0.0041 H         1 <0>         0.1255
     55 H19         4.5035  -10.2087    1.0943 H         1 <0>         0.1219
     56 H20         1.9450   -6.8211    1.4948 H         1 <0>         0.1390
     57 H21         1.2121   -8.8580    2.2790 H         1 <0>         0.0788
     58 H22         2.5255  -11.1909    0.8128 H         1 <0>         0.0568
     59 H23         0.9058  -11.2084    1.5506 H         1 <0>         0.0586
     60 H24         1.2393  -10.1473    0.1610 H         1 <0>         0.0553
     61 H25         1.9155  -10.7027    3.7793 H         1 <0>         0.0586
     62 H26         3.5353  -10.6852    3.0415 H         1 <0>         0.0563
     63 H27         2.9684   -9.2813    3.9775 H         1 <0>         0.0570
@<TRIPOS>BOND
     1    1    2 1
     2    1   37 1
     3    1   38 1
     4    1   39 1
     5    2    7 ar
     6    2    3 ar
     7    3    4 ar
     8    3   40 1
     9    4    5 ar
    10    4   41 1
    11    5    6 ar
    12    5   25 1
    13    6    7 ar
    14    6   42 1
    15    7    8 1
    16    8    9 1
    17    8   43 1
    18    9   17 1
    19    9   10 2
    20   10   11 1
    21   11   16 ar
    22   11   12 ar
    23   12   13 ar
    24   12   44 1
    25   13   14 ar
    26   13   45 1
    27   14   15 ar
    28   14   46 1
    29   15   16 ar
    30   15   47 1
    31   16   17 1
    32   17   18 1
    33   18   23 ar
    34   18   19 ar
    35   19   20 ar
    36   19   48 1
    37   20   21 ar
    38   20   24 1
    39   21   22 ar
    40   22   23 ar
    41   22   49 1
    42   24   50 1
    43   24   51 1
    44   25   26 2
    45   25   27 am
    46   27   28 1
    47   27   52 1
    48   28   33 ar
    49   28   29 ar
    50   29   30 ar
    51   29   53 1
    52   30   31 ar
    53   30   54 1
    54   31   32 ar
    55   31   55 1
    56   32   33 ar
    57   32   34 1
    58   33   56 1
    59   34   35 1
    60   34   36 1
    61   34   57 1
    62   35   58 1
    63   35   59 1
    64   35   60 1
    65   36   61 1
    66   36   62 1
    67   36   63 1
@<TRIPOS>MOLECULE
CHEMBL1087127__1
   64    68     0     0     0
SMALL
USER_CHARGES

@<TRIPOS>ATOM
      1 C1         -0.5979    1.5151    0.1385 C.3       1 <0>        -0.1283
      2 C2         -1.6697    0.5347    0.5397 C.ar      1 <0>        -0.0779
      3 C3         -2.8096    0.4062   -0.2319 C.ar      1 <0>        -0.0765
      4 C4         -3.7956   -0.4889    0.1291 C.ar      1 <0>        -0.0904
      5 C5         -3.6439   -1.2693    1.2770 C.ar      1 <0>        -0.0906
      6 C6         -2.4938   -1.1402    2.0553 C.ar      1 <0>        -0.1135
      7 C7         -1.5064   -0.2414    1.6810 C.ar      1 <0>         0.1436
      8 N1         -0.3488   -0.1121    2.4547 N.pl3     1 <0>        -0.6601
      9 C8         -0.2337   -0.8013    3.6445 C.cat     1 <0>         0.6259
     10 N2         -0.1600   -2.1037    3.7558 N.pl3     1 <0>        -0.4800
     11 C9         -0.0543   -2.4465    5.0669 C.ar      1 <0>         0.0549
     12 C10         0.0520   -3.6702    5.7324 C.ar      1 <0>        -0.0745
     13 C11         0.1451   -3.6959    7.1060 C.ar      1 <0>        -0.0716
     14 C12         0.1342   -2.5157    7.8344 C.ar      1 <0>        -0.0664
     15 C13         0.0293   -1.2990    7.1918 C.ar      1 <0>        -0.0670
     16 C14        -0.0649   -1.2545    5.8097 C.ar      1 <0>         0.0935
     17 N3         -0.1734   -0.2251    4.8856 N.pl3     1 <0>        -0.3750
     18 C15        -0.2164    1.1390    5.1676 C.ar      1 <0>         0.4028
     19 C16        -0.2894    2.0697    4.1379 C.ar      1 <0>        -0.3051
     20 C17        -0.3299    3.4211    4.4718 C.ar      1 <0>         0.4771
     21 N4         -0.2974    3.7701    5.7562 N.ar      1 <0>        -0.5621
     22 C18        -0.2280    2.8566    6.7030 C.ar      1 <0>         0.3946
     23 N5         -0.1935    1.5689    6.4269 N.ar      1 <0>        -0.5644
     24 N6         -0.4025    4.3884    3.4817 N.pl3     1 <0>        -0.8152
     25 C19        -4.6989   -2.2288    1.6664 C.2       1 <0>         0.5567
     26 O1         -4.5647   -2.9071    2.6661 O.2       1 <0>        -0.5137
     27 N7         -5.8096   -2.3514    0.9128 N.am      1 <0>        -0.6604
     28 C20        -6.7621   -3.3267    1.2249 C.ar      1 <0>         0.1330
     29 C21        -7.4493   -3.9787    0.2089 C.ar      1 <0>        -0.1436
     30 C22        -8.3889   -4.9416    0.5204 C.ar      1 <0>        -0.0964
     31 C23        -8.6463   -5.2566    1.8423 C.ar      1 <0>        -0.1208
     32 C24        -7.9641   -4.6094    2.8559 C.ar      1 <0>        -0.0572
     33 C25        -7.0189   -3.6494    2.5509 C.ar      1 <0>        -0.1156
     34 C26        -8.2482   -4.9555    4.2948 C.3       1 <0>        -0.0572
     35 C27        -9.7208   -4.6792    4.6047 C.3       1 <0>        -0.1460
     36 C28        -7.9463   -6.4365    4.5323 C.3       1 <0>        -0.1448
     37 H1          0.1176    1.0221   -0.5196 H         1 <0>         0.0905
     38 H2         -1.0524    2.3566   -0.3843 H         1 <0>         0.0922
     39 H3         -0.0835    1.8758    1.0293 H         1 <0>         0.0583
     40 H4         -2.9289    1.0089   -1.1202 H         1 <0>         0.1512
     41 H5         -4.6849   -0.5858   -0.4760 H         1 <0>         0.1407
     42 H6         -2.3710   -1.7408    2.9445 H         1 <0>         0.1307
     43 H7          0.3732    0.4621    2.1550 H         1 <0>         0.4449
     44 H8          0.0608   -4.5930    5.1714 H         1 <0>         0.1570
     45 H9          0.2269   -4.6422    7.6201 H         1 <0>         0.1604
     46 H10         0.2078   -2.5492    8.9114 H         1 <0>         0.1605
     47 H11         0.0206   -0.3835    7.7646 H         1 <0>         0.1681
     48 H12        -0.3137    1.7531    3.1056 H         1 <0>         0.1546
     49 H13        -0.2033    3.1724    7.7355 H         1 <0>         0.2226
     50 H14        -0.4254    4.1260    2.5481 H         1 <0>         0.4169
     51 H15        -0.4303    5.3276    3.7224 H         1 <0>         0.4222
     52 H16        -5.9483   -1.7633    0.1541 H         1 <0>         0.4119
     53 H17        -7.2492   -3.7327   -0.8235 H         1 <0>         0.1263
     54 H18        -8.9235   -5.4489   -0.2690 H         1 <0>         0.1305
     55 H19        -9.3822   -6.0095    2.0833 H         1 <0>         0.1264
     56 H20        -6.4834   -3.1472    3.3430 H         1 <0>         0.1352
     57 H21        -7.6197   -4.3477    4.9457 H         1 <0>         0.0762
     58 H22       -10.3493   -5.2870    3.9538 H         1 <0>         0.0593
     59 H23        -9.9263   -4.9295    5.6454 H         1 <0>         0.0612
     60 H24        -9.9359   -3.6241    4.4355 H         1 <0>         0.0557
     61 H25        -6.8972   -6.6334    4.3116 H         1 <0>         0.0549
     62 H26        -8.1519   -6.6869    5.5731 H         1 <0>         0.0608
     63 H27        -8.5749   -7.0444    3.8815 H         1 <0>         0.0589
     64 H28        -0.1781   -2.7293    3.0147 H         1 <0>         0.4643
@<TRIPOS>BOND
     1    1    2 1
     2    1   37 1
     3    1   38 1
     4    1   39 1
     5    2    7 ar
     6    2    3 ar
     7    3    4 ar
     8    3   40 1
     9    4    5 ar
    10    4   41 1
    11    5    6 ar
    12    5   25 1
    13    6    7 ar
    14    6   42 1
    15    7    8 1
    16    8    9 1
    17    8   43 1
    18    9   17 1
    19    9   10 2
    20   10   11 1
    21   10   64 1
    22   11   16 ar
    23   11   12 ar
    24   12   13 ar
    25   12   44 1
    26   13   14 ar
    27   13   45 1
    28   14   15 ar
    29   14   46 1
    30   15   16 ar
    31   15   47 1
    32   16   17 1
    33   17   18 1
    34   18   23 ar
    35   18   19 ar
    36   19   20 ar
    37   19   48 1
    38   20   21 ar
    39   20   24 1
    40   21   22 ar
    41   22   23 ar
    42   22   49 1
    43   24   50 1
    44   24   51 1
    45   25   26 2
    46   25   27 am
    47   27   28 1
    48   27   52 1
    49   28   33 ar
    50   28   29 ar
    51   29   30 ar
    52   29   53 1
    53   30   31 ar
    54   30   54 1
    55   31   32 ar
    56   31   55 1
    57   32   33 ar
    58   32   34 1
    59   33   56 1
    60   34   35 1
    61   34   36 1
    62   34   57 1
    63   35   58 1
    64   35   59 1
    65   35   60 1
    66   36   61 1
    67   36   62 1
    68   36   63 1
@<TRIPOS>MOLECULE
CHEMBL535
   57    59     0     0     0
SMALL
USER_CHARGES

@<TRIPOS>ATOM
      1 C1          0.1489    2.0884    0.1150 C.3       1 <0>        -0.1876
      2 C2          0.1348    0.5603    0.1888 C.3       1 <0>        -0.0191
      3 N1         -1.2520    0.0881    0.2979 N.4       1 <0>        -0.3822
      4 C3         -1.9779    0.4111   -0.9377 C.3       1 <0>        -0.0142
      5 C4         -3.4549    0.0484   -0.7712 C.3       1 <0>        -0.1895
      6 C5         -1.2593   -1.3663    0.5041 C.3       1 <0>        -0.0265
      7 C6         -0.6131   -1.6936    1.8518 C.3       1 <0>         0.0952
      8 N2         -0.6203   -3.1440    2.0575 N.am      1 <0>        -0.7289
      9 C7         -0.0988   -3.6675    3.1846 C.2       1 <0>         0.6111
     10 O1          0.3779   -2.9358    4.0309 O.2       1 <0>        -0.5184
     11 C8         -0.1061   -5.1270    3.3915 C.2       1 <0>        -0.2420
     12 C9          0.9071   -6.0320    3.0089 C.2       1 <0>        -0.0577
     13 C10         0.4868   -7.2892    3.3960 C.2       1 <0>        -0.0075
     14 N3         -0.7476   -7.1595    3.9982 N.pl3     1 <0>        -0.4910
     15 H1         -1.2731   -7.8879    4.3645 H         1 <0>         0.4270
     16 C11        -1.1044   -5.8642    4.0022 C.2       1 <0>         0.1158
     17 C12        -2.3825   -5.3072    4.5743 C.3       1 <0>        -0.0999
     18 C13         1.1957   -8.4957    3.2079 C.2       1 <0>         0.0729
     19 C14         0.5100   -9.6674    2.9570 C.2       1 <0>        -0.1889
     20 C15         1.0648  -11.0377    2.8871 C.ar      1 <0>        -0.0736
     21 C16         2.3472  -11.5557    3.0375 C.ar      1 <0>        -0.1000
     22 C17         2.5553  -12.9162    2.9116 C.ar      1 <0>         0.0861
     23 C18         1.4888  -13.7593    2.6366 C.ar      1 <0>        -0.1139
     24 C19         0.2139  -13.2531    2.4856 C.ar      1 <0>        -0.1021
     25 C20        -0.0144  -11.8871    2.6092 C.ar      1 <0>         0.1282
     26 N4         -1.1765  -11.1301    2.5069 N.am      1 <0>        -0.6466
     27 C21        -0.9294   -9.8245    2.7079 C.2       1 <0>         0.5595
     28 O2         -1.7538   -8.9280    2.6842 O.2       1 <0>        -0.5156
     29 F1          3.7984  -13.4252    3.0561 F         1 <0>        -0.1318
     30 C22         2.1990   -5.6919    2.3116 C.3       1 <0>        -0.0931
     31 H2          1.1793    2.4435    0.1331 H         1 <0>         0.1076
     32 H3         -0.3308    2.4121   -0.8087 H         1 <0>         0.0811
     33 H4         -0.3916    2.4984    0.9682 H         1 <0>         0.0809
     34 H5          0.5888    0.1488   -0.7126 H         1 <0>         0.1317
     35 H6          0.6996    0.2334    1.0619 H         1 <0>         0.1337
     36 H7         -1.8867    1.4775   -1.1444 H         1 <0>         0.1351
     37 H8         -1.5554   -0.1571   -1.7664 H         1 <0>         0.1307
     38 H9         -3.5537   -1.0316   -0.6617 H         1 <0>         0.0802
     39 H10        -3.8523    0.5414    0.1160 H         1 <0>         0.0808
     40 H11        -4.0109    0.3769   -1.6492 H         1 <0>         0.1074
     41 H12        -2.2871   -1.7292    0.4963 H         1 <0>         0.1397
     42 H13        -0.6973   -1.8494   -0.2952 H         1 <0>         0.1376
     43 H14         0.4147   -1.3306    1.8596 H         1 <0>         0.0893
     44 H15        -1.1751   -1.2105    2.6511 H         1 <0>         0.0890
     45 H16        -1.0005   -3.7277    1.3824 H         1 <0>         0.4099
     46 H17        -3.1529   -5.3000    3.8032 H         1 <0>         0.0840
     47 H18        -2.7087   -5.9289    5.4080 H         1 <0>         0.0782
     48 H19        -2.2103   -4.2898    4.9254 H         1 <0>         0.0840
     49 H20         2.2744   -8.5020    3.2604 H         1 <0>         0.1589
     50 H21         3.1765  -10.8977    3.2512 H         1 <0>         0.1436
     51 H22         1.6578  -14.8215    2.5394 H         1 <0>         0.1485
     52 H23        -0.6084  -13.9196    2.2712 H         1 <0>         0.1415
     53 H24        -2.0541  -11.4980    2.3189 H         1 <0>         0.4217
     54 H25         2.9686   -5.4822    3.0545 H         1 <0>         0.0785
     55 H26         2.5107   -6.5337    1.6932 H         1 <0>         0.0726
     56 H27         2.0522   -4.8138    1.6827 H         1 <0>         0.0634
     57 H28        -1.7009    0.5410    1.0799 H         1 <0>         0.4247
@<TRIPOS>BOND
     1    1    2 1
     2    1   31 1
     3    1   32 1
     4    1   33 1
     5    2    3 1
     6    2   34 1
     7    2   35 1
     8    3    4 1
     9    3    6 1
    10    3   57 1
    11    4    5 1
    12    4   36 1
    13    4   37 1
    14    5   38 1
    15    5   39 1
    16    5   40 1
    17    6    7 1
    18    6   41 1
    19    6   42 1
    20    7    8 1
    21    7   43 1
    22    7   44 1
    23    8    9 am
    24    8   45 1
    25    9   10 2
    26    9   11 1
    27   11   16 2
    28   11   12 1
    29   12   13 2
    30   12   30 1
    31   13   14 1
    32   13   18 1
    33   14   15 1
    34   14   16 1
    35   16   17 1
    36   17   46 1
    37   17   47 1
    38   17   48 1
    39   18   19 2
    40   18   49 1
    41   19   27 1
    42   19   20 1
    43   20   25 ar
    44   20   21 ar
    45   21   22 ar
    46   21   50 1
    47   22   23 ar
    48   22   29 1
    49   23   24 ar
    50   23   51 1
    51   24   25 ar
    52   24   52 1
    53   25   26 1
    54   26   27 am
    55   26   53 1
    56   27   28 2
    57   30   54 1
    58   30   55 1
    59   30   56 1
@<TRIPOS>MOLECULE
CHEMBL101221
   42    45     0     0     0
SMALL
USER_CHARGES

@<TRIPOS>ATOM
      1 C1         -0.0184    1.5028    0.0103 C.3       1 <0>        -0.1708
      2 C2          0.0021   -0.0041    0.0020 C.2       1 <0>         0.5019
      3 O1          1.0606   -0.5962   -0.0113 O.2       1 <0>        -0.4991
      4 N1         -1.1558   -0.6938    0.0094 N.am      1 <0>        -0.6281
      5 C3         -1.1370   -2.0826    0.0017 C.2       1 <0>         0.2208
      6 C4         -2.2246   -2.9109    0.0021 C.2       1 <0>        -0.0052
      7 N2         -1.7658   -4.1793   -0.0077 N.2       1 <0>        -0.4125
      8 C5         -0.4550   -4.1516   -0.0139 C.2       1 <0>         0.2241
      9 O2         -0.0431   -2.8697   -0.0134 O.3       1 <0>        -0.1740
     10 C6          0.4270   -5.3350   -0.0253 C.ar      1 <0>        -0.0373
     11 C7          1.8019   -5.1683   -0.0253 C.ar      1 <0>        -0.0507
     12 C8          2.6349   -6.2968   -0.0361 C.ar      1 <0>        -0.0644
     13 C9          4.0354   -6.1647   -0.0360 C.ar      1 <0>        -0.0942
     14 C10         4.8172   -7.2785   -0.0462 C.ar      1 <0>        -0.1191
     15 C11         4.2510   -8.5520   -0.0574 C.ar      1 <0>        -0.1020
     16 C12         2.9000   -8.7189   -0.0578 C.ar      1 <0>        -0.1121
     17 C13         2.0588   -7.5931   -0.0469 C.ar      1 <0>        -0.0234
     18 C14         0.6603   -7.7345   -0.0466 C.ar      1 <0>        -0.1365
     19 C15        -0.1361   -6.6287   -0.0302 C.ar      1 <0>         0.1531
     20 O3         -1.4865   -6.7735   -0.0244 O.3       1 <0>        -0.4740
     21 C16        -3.6460   -2.4923    0.0120 C.ar      1 <0>        -0.0020
     22 C17        -4.0339   -1.3479    0.7082 C.ar      1 <0>        -0.1258
     23 C18        -5.3590   -0.9629    0.7133 C.ar      1 <0>        -0.1113
     24 C19        -6.3019   -1.7099    0.0301 C.ar      1 <0>        -0.1159
     25 C20        -5.9232   -2.8461   -0.6623 C.ar      1 <0>        -0.1129
     26 C21        -4.6002   -3.2380   -0.6796 C.ar      1 <0>        -0.0872
     27 H1          1.0042    1.8801    0.0026 H         1 <0>         0.1040
     28 H2         -0.5455    1.8639   -0.8728 H         1 <0>         0.0981
     29 H3         -0.5286    1.8543    0.9071 H         1 <0>         0.0980
     30 H4         -2.0023   -0.2203    0.0200 H         1 <0>         0.4338
     31 H5          2.2295   -4.1766   -0.0174 H         1 <0>         0.1422
     32 H6          4.4879   -5.1841   -0.0281 H         1 <0>         0.1312
     33 H7          5.8922   -7.1741   -0.0461 H         1 <0>         0.1271
     34 H8          4.8940   -9.4197   -0.0661 H         1 <0>         0.1270
     35 H9          2.4764   -9.7123   -0.0669 H         1 <0>         0.1315
     36 H10         0.2170   -8.7192   -0.0548 H         1 <0>         0.1432
     37 H11        -1.8819   -6.8102   -0.9061 H         1 <0>         0.3926
     38 H12        -3.2988   -0.7644    1.2425 H         1 <0>         0.1179
     39 H13        -5.6606   -0.0768    1.2521 H         1 <0>         0.1282
     40 H14        -7.3380   -1.4050    0.0376 H         1 <0>         0.1259
     41 H15        -6.6638   -3.4254   -1.1936 H         1 <0>         0.1279
     42 H16        -4.3050   -4.1226   -1.2242 H         1 <0>         0.1297
@<TRIPOS>BOND
     1    1    2 1
     2    1   27 1
     3    1   28 1
     4    1   29 1
     5    2    3 2
     6    2    4 am
     7    4    5 1
     8    4   30 1
     9    5    9 1
    10    5    6 2
    11    6    7 1
    12    6   21 1
    13    7    8 2
    14    8    9 1
    15    8   10 1
    16   10   19 ar
    17   10   11 ar
    18   11   12 ar
    19   11   31 1
    20   12   17 ar
    21   12   13 ar
    22   13   14 ar
    23   13   32 1
    24   14   15 ar
    25   14   33 1
    26   15   16 ar
    27   15   34 1
    28   16   17 ar
    29   16   35 1
    30   17   18 ar
    31   18   19 ar
    32   18   36 1
    33   19   20 1
    34   20   37 1
    35   21   26 ar
    36   21   22 ar
    37   22   23 ar
    38   22   38 1
    39   23   24 ar
    40   23   39 1
    41   24   25 ar
    42   24   40 1
    43   25   26 ar
    44   25   41 1
    45   26   42 1
@<TRIPOS>MOLECULE
CHEMBL118569
   55    58     0     0     0
SMALL
USER_CHARGES

@<TRIPOS>ATOM
      1 C1         -1.4496   -0.2854    0.1688 C.3       1 <0>        -0.0512
      2 N1         -0.0366    0.1021    0.0626 N.4       1 <0>        -0.3870
      3 C2          0.5437   -0.4901   -1.1502 C.3       1 <0>        -0.0095
      4 C3         -0.1340    0.1084   -2.3844 C.3       1 <0>         0.0272
      5 O1          0.1667    1.5032   -2.4636 O.3       1 <0>        -0.3984
      6 C4         -0.4215    2.1617   -3.5873 C.3       1 <0>         0.0303
      7 C5          0.6939   -0.3820    1.2416 C.3       1 <0>        -0.0014
      8 C6          2.1256    0.1565    1.2111 C.3       1 <0>         0.0271
      9 O2          2.1017    1.5802    1.3319 O.3       1 <0>        -0.3267
     10 C7          3.3012    2.2209    1.3223 C.ar      1 <0>         0.0848
     11 C8          4.4781    1.4875    1.1927 C.ar      1 <0>        -0.1774
     12 C9          5.7016    2.1200    1.1806 C.ar      1 <0>        -0.0846
     13 C10         5.7710    3.5039    1.2984 C.ar      1 <0>         0.0843
     14 C11         4.5837    4.2486    1.4296 C.ar      1 <0>        -0.0680
     15 C12         3.3469    3.5956    1.4353 C.ar      1 <0>        -0.0921
     16 C13         4.9866    5.6499    1.5305 C.2       1 <0>        -0.1672
     17 C14         6.3425    5.6787    1.4580 C.2       1 <0>         0.1543
     18 N2          6.8230    4.3970    1.3187 N.pl3     1 <0>        -0.5857
     19 H1          7.7601    4.1572    1.2461 H         1 <0>         0.4179
     20 C15         7.1727    6.8975    1.5183 C.2       1 <0>        -0.1514
     21 C16         7.9159    7.2895    0.4248 C.2       1 <0>         0.0164
     22 C17         8.7040    8.4645    0.5118 C.ar      1 <0>        -0.1397
     23 C18         9.4692    8.8862   -0.5857 C.ar      1 <0>        -0.0495
     24 C19        10.2246   10.0191   -0.4929 C.ar      1 <0>        -0.1491
     25 C20        10.2434   10.7606    0.6809 C.ar      1 <0>        -0.0500
     26 C21         9.5006   10.3663    1.7722 C.ar      1 <0>        -0.1670
     27 C22         8.7214    9.2145    1.7024 C.ar      1 <0>         0.1962
     28 N3          7.9752    8.8164    2.7929 N.am      1 <0>        -0.6266
     29 C23         7.2117    7.7089    2.7404 C.2       1 <0>         0.5468
     30 O3          6.5560    7.3764    3.7115 O.2       1 <0>        -0.5167
     31 H2         -1.8504    0.0602    1.1217 H         1 <0>         0.1270
     32 H3         -2.0126    0.1668   -0.6477 H         1 <0>         0.1229
     33 H4         -1.5341   -1.3706    0.1112 H         1 <0>         0.1236
     34 H5          1.6121   -0.2770   -1.1831 H         1 <0>         0.1375
     35 H6          0.3886   -1.5689   -1.1377 H         1 <0>         0.1446
     36 H7          0.2327   -0.3937   -3.2797 H         1 <0>         0.0966
     37 H8         -1.2129   -0.0269   -2.3081 H         1 <0>         0.0753
     38 H9         -0.1460    3.2162   -3.5755 H         1 <0>         0.1006
     39 H10        -0.0607    1.7021   -4.5075 H         1 <0>         0.0546
     40 H11        -1.5063    2.0689   -3.5359 H         1 <0>         0.0513
     41 H12         0.1944   -0.0352    2.1462 H         1 <0>         0.1436
     42 H13         0.7154   -1.4718    1.2335 H         1 <0>         0.1481
     43 H14         2.6916   -0.2690    2.0398 H         1 <0>         0.1072
     44 H15         2.5980   -0.1202    0.2686 H         1 <0>         0.0833
     45 H16         4.4309    0.4124    1.1012 H         1 <0>         0.1290
     46 H17         6.6076    1.5408    1.0799 H         1 <0>         0.1286
     47 H18         2.4333    4.1634    1.5313 H         1 <0>         0.1332
     48 H19         4.3307    6.5008    1.6413 H         1 <0>         0.1515
     49 H20         7.8980    6.7087   -0.4855 H         1 <0>         0.1458
     50 H21         9.4607    8.3153   -1.5024 H         1 <0>         0.1376
     51 H22        10.8130   10.3412   -1.3393 H         1 <0>         0.1348
     52 H23        10.8462   11.6548    0.7390 H         1 <0>         0.1375
     53 H24         9.5222   10.9502    2.6805 H         1 <0>         0.1382
     54 H25         7.9974    9.3442    3.6064 H         1 <0>         0.4213
     55 H26         0.0337    1.1074    0.0127 H         1 <0>         0.4400
@<TRIPOS>BOND
     1    1    2 1
     2    1   31 1
     3    1   32 1
     4    1   33 1
     5    2    3 1
     6    2    7 1
     7    2   55 1
     8    3    4 1
     9    3   34 1
    10    3   35 1
    11    4    5 1
    12    4   36 1
    13    4   37 1
    14    5    6 1
    15    6   38 1
    16    6   39 1
    17    6   40 1
    18    7    8 1
    19    7   41 1
    20    7   42 1
    21    8    9 1
    22    8   43 1
    23    8   44 1
    24    9   10 1
    25   10   15 ar
    26   10   11 ar
    27   11   12 ar
    28   11   45 1
    29   12   13 ar
    30   12   46 1
    31   13   18 1
    32   13   14 ar
    33   14   15 ar
    34   14   16 1
    35   15   47 1
    36   16   17 2
    37   16   48 1
    38   17   18 1
    39   17   20 1
    40   18   19 1
    41   20   29 1
    42   20   21 2
    43   21   22 1
    44   21   49 1
    45   22   27 ar
    46   22   23 ar
    47   23   24 ar
    48   23   50 1
    49   24   25 ar
    50   24   51 1
    51   25   26 ar
    52   25   52 1
    53   26   27 ar
    54   26   53 1
    55   27   28 1
    56   28   29 am
    57   28   54 1
    58   29   30 2
@<TRIPOS>MOLECULE
CHEMBL118569__1
   54    57     0     0     0
SMALL
USER_CHARGES

@<TRIPOS>ATOM
      1 C1          1.0537    0.0143    1.0884 C.3       1 <0>         0.0230
      2 N1          0.0781    0.1150   -0.0053 N.3       1 <0>        -0.5253
      3 C2         -1.1718   -0.5758    0.3389 C.3       1 <0>         0.0515
      4 C3         -1.8521    0.1500    1.5014 C.3       1 <0>         0.0647
      5 O1         -2.2462    1.4577    1.0812 O.3       1 <0>        -0.3702
      6 C4         -2.8949    2.2241    2.0981 C.3       1 <0>         0.0305
      7 C5          0.6384   -0.4045   -1.2600 C.3       1 <0>         0.0546
      8 C6         -0.2177    0.0699   -2.4359 C.3       1 <0>         0.0670
      9 O2         -0.1481    1.4940   -2.5318 O.3       1 <0>        -0.2943
     10 C7         -0.8581    2.0808   -3.5322 C.ar      1 <0>         0.1090
     11 C8         -1.6120    1.2953   -4.4007 C.ar      1 <0>        -0.1767
     12 C9         -2.3375    1.8729   -5.4192 C.ar      1 <0>        -0.0923
     13 C10        -2.3222    3.2530   -5.5887 C.ar      1 <0>         0.0727
     14 C11        -1.5614    4.0504   -4.7130 C.ar      1 <0>        -0.0668
     15 C12        -0.8330    3.4529   -3.6793 C.ar      1 <0>        -0.1079
     16 C13        -1.7503    5.4331   -5.1473 C.2       1 <0>        -0.1637
     17 C14        -2.5824    5.4014   -6.2202 C.2       1 <0>         0.1354
     18 N2         -2.9314    4.0988   -6.4934 N.pl3     1 <0>        -0.5898
     19 H1         -3.5171    3.8172   -7.2135 H         1 <0>         0.4128
     20 C15        -3.0424    6.5825   -6.9763 C.2       1 <0>        -0.1330
     21 C16        -4.3757    6.9343   -6.9763 C.2       1 <0>         0.0031
     22 C17        -4.7886    8.0739   -7.7115 C.ar      1 <0>        -0.1332
     23 C18        -6.1386    8.4544   -7.7282 C.ar      1 <0>        -0.0508
     24 C19        -6.5267    9.5532   -8.4385 C.ar      1 <0>        -0.1510
     25 C20        -5.5954   10.3005   -9.1471 C.ar      1 <0>        -0.0560
     26 C21        -4.2639    9.9463   -9.1463 C.ar      1 <0>        -0.1671
     27 C22        -3.8428    8.8297   -8.4288 C.ar      1 <0>         0.1933
     28 N3         -2.5101    8.4720   -8.4245 N.am      1 <0>        -0.6284
     29 C23        -2.0850    7.3990   -7.7314 C.2       1 <0>         0.5445
     30 O3         -0.9038    7.1020   -7.7355 O.2       1 <0>        -0.5125
     31 H2          1.2042   -1.0341    1.3456 H         1 <0>         0.0243
     32 H3          2.0011    0.4504    0.7715 H         1 <0>         0.0705
     33 H4          0.6796    0.5521    1.9596 H         1 <0>         0.0696
     34 H5         -1.8354   -0.5786   -0.5259 H         1 <0>         0.0833
     35 H6         -0.9510   -1.6025    0.6309 H         1 <0>         0.0490
     36 H7         -2.7321   -0.4115    1.8151 H         1 <0>         0.0501
     37 H8         -1.1561    0.2310    2.3363 H         1 <0>         0.0494
     38 H9         -3.1624    3.2030    1.7003 H         1 <0>         0.0855
     39 H10        -3.7966    1.7056    2.4242 H         1 <0>         0.0367
     40 H11        -2.2205    2.3481    2.9454 H         1 <0>         0.0383
     41 H12         1.6579   -0.0384   -1.3818 H         1 <0>         0.0877
     42 H13         0.6447   -1.4941   -1.2314 H         1 <0>         0.0556
     43 H14         0.1541   -0.3750   -3.3589 H         1 <0>         0.0626
     44 H15        -1.2526   -0.2334   -2.2775 H         1 <0>         0.0602
     45 H16        -1.6278    0.2228   -4.2745 H         1 <0>         0.1285
     46 H17        -2.9182    1.2535   -6.0867 H         1 <0>         0.1218
     47 H18        -0.2515    4.0612   -3.0024 H         1 <0>         0.1312
     48 H19        -1.3119    6.3128   -4.6998 H         1 <0>         0.1470
     49 H20        -5.0960    6.3493   -6.4237 H         1 <0>         0.1461
     50 H21        -6.8697    7.8786   -7.1801 H         1 <0>         0.1370
     51 H22        -7.5668    9.8436   -8.4499 H         1 <0>         0.1325
     52 H23        -5.9179   11.1675   -9.7046 H         1 <0>         0.1347
     53 H24        -3.5476   10.5345   -9.7007 H         1 <0>         0.1361
     54 H25        -1.8703    9.0034   -8.9237 H         1 <0>         0.4193
@<TRIPOS>BOND
     1    1    2 1
     2    1   31 1
     3    1   32 1
     4    1   33 1
     5    2    3 1
     6    2    7 1
     7    3    4 1
     8    3   34 1
     9    3   35 1
    10    4    5 1
    11    4   36 1
    12    4   37 1
    13    5    6 1
    14    6   38 1
    15    6   39 1
    16    6   40 1
    17    7    8 1
    18    7   41 1
    19    7   42 1
    20    8    9 1
    21    8   43 1
    22    8   44 1
    23    9   10 1
    24   10   15 ar
    25   10   11 ar
    26   11   12 ar
    27   11   45 1
    28   12   13 ar
    29   12   46 1
    30   13   18 1
    31   13   14 ar
    32   14   15 ar
    33   14   16 1
    34   15   47 1
    35   16   17 2
    36   16   48 1
    37   17   18 1
    38   17   20 1
    39   18   19 1
    40   20   29 1
    41   20   21 2
    42   21   22 1
    43   21   49 1
    44   22   27 ar
    45   22   23 ar
    46   23   24 ar
    47   23   50 1
    48   24   25 ar
    49   24   51 1
    50   25   26 ar
    51   25   52 1
    52   26   27 ar
    53   26   53 1
    54   27   28 1
    55   28   29 am
    56   28   54 1
    57   29   30 2
@<TRIPOS>MOLECULE
CHEMBL258046
   68    73     0     0     0
SMALL
USER_CHARGES

@<TRIPOS>ATOM
      1 C1         -0.6423    1.7717   -0.1526 C.3       1 <0>        -0.1559
      2 C2         -0.2412    0.2952   -0.1600 C.3       1 <0>        -0.0260
      3 C3          0.7229    0.0228    0.9963 C.3       1 <0>        -0.1547
      4 C4         -1.4715   -0.5603   -0.0004 C.2       1 <0>        -0.0114
      5 C5         -2.3713   -0.5422    1.0823 C.2       1 <0>        -0.1073
      6 C6         -3.3505   -1.4830    0.8196 C.2       1 <0>         0.1206
      7 N1         -3.0855   -2.0642   -0.3632 N.pl3     1 <0>        -0.2257
      8 C7         -1.9351   -1.5066   -0.8892 C.2       1 <0>        -0.1038
      9 C8         -1.4725   -1.9711   -2.1443 C.2       1 <0>         0.5374
     10 N2         -2.1519   -2.9156   -2.7733 N.2       1 <0>        -0.6169
     11 C9         -3.2607   -3.4406   -2.2552 C.2       1 <0>         0.3419
     12 N3         -3.7366   -3.0645   -1.1002 N.2       1 <0>        -0.3436
     13 N4         -0.3262   -1.4441   -2.7049 N.pl3     1 <0>        -0.6124
     14 C10         0.0513   -1.8112   -4.0027 C.ar      1 <0>         0.0928
     15 C11        -0.8879   -2.3347   -4.8739 C.ar      1 <0>        -0.0392
     16 C12        -0.5081   -2.6993   -6.1677 C.ar      1 <0>        -0.1629
     17 C13         0.8199   -2.5330   -6.5749 C.ar      1 <0>         0.1845
     18 C14         1.7502   -2.0092   -5.6971 C.ar      1 <0>        -0.1766
     19 C15         1.3706   -1.6437   -4.4175 C.ar      1 <0>         0.1339
     20 F1          2.2835   -1.1271   -3.5660 F         1 <0>        -0.1207
     21 F2          1.1928   -2.8844   -7.8249 F         1 <0>        -0.0991
     22 C16        -1.5044   -3.2587   -7.1018 C.2       1 <0>         0.5663
     23 O1         -1.1716   -3.5754   -8.2275 O.2       1 <0>        -0.5120
     24 N5         -2.7831   -3.4184   -6.7070 N.am      1 <0>        -0.6947
     25 C17        -3.7721   -3.9736   -7.6343 C.3       1 <0>         0.0774
     26 C18        -5.1435   -3.2978   -7.6925 C.3       1 <0>        -0.1915
     27 C19        -4.9939   -4.6693   -7.0308 C.3       1 <0>        -0.1856
     28 C20        -2.2852    0.3219    2.2787 C.2       1 <0>         0.2687
     29 N6         -1.3599    1.2171    2.5251 N.2       1 <0>        -0.2444
     30 N7         -1.6012    1.7800    3.6565 N.2       1 <0>        -0.3168
     31 C21        -2.6877    1.2675    4.1763 C.2       1 <0>         0.3420
     32 O2         -3.1484    0.3391    3.3171 O.3       1 <0>        -0.2039
     33 O3         -3.2489    1.6120    5.3596 O.3       1 <0>        -0.2504
     34 C22        -2.5944    2.6332    6.1151 C.3       1 <0>         0.0882
     35 C23        -1.5733    1.9952    7.0614 C.3       1 <0>        -0.1748
     36 C24        -0.9334    3.0859    7.9230 C.3       1 <0>        -0.0001
     37 N8         -1.9709    3.7666    8.7071 N.4       1 <0>        -0.5089
     38 C25        -2.9136    4.4412    7.8067 C.3       1 <0>         0.0011
     39 C26        -3.6296    3.4026    6.9407 C.3       1 <0>        -0.1492
     40 H1          0.2476    2.3905   -0.2680 H         1 <0>         0.0670
     41 H2         -1.3292    1.9658   -0.9763 H         1 <0>         0.0513
     42 H3         -1.1310    2.0107    0.7920 H         1 <0>         0.0869
     43 H4          0.2474    0.0562   -1.1046 H         1 <0>         0.0629
     44 H5          0.2343    0.2618    1.9408 H         1 <0>         0.0847
     45 H6          1.0087   -1.0291    0.9910 H         1 <0>         0.0514
     46 H7          1.6128    0.6416    0.8808 H         1 <0>         0.0674
     47 H8         -4.1896   -1.7130    1.4595 H         1 <0>         0.1954
     48 H9         -3.7803   -4.2097   -2.8073 H         1 <0>         0.2284
     49 H10         0.2178   -0.8196   -2.1999 H         1 <0>         0.4296
     50 H11        -1.9117   -2.4613   -4.5542 H         1 <0>         0.1824
     51 H12         2.7753   -1.8810   -6.0120 H         1 <0>         0.1672
     52 H13        -3.0486   -3.1657   -5.8090 H         1 <0>         0.4008
     53 H14        -3.3703   -4.3783   -8.5633 H         1 <0>         0.1424
     54 H15        -5.3099   -2.4401   -7.0408 H         1 <0>         0.0964
     55 H16        -5.6442   -3.2577   -8.6598 H         1 <0>         0.1059
     56 H17        -5.3961   -5.5313   -7.5629 H         1 <0>         0.1073
     57 H18        -5.0619   -4.7138   -5.9439 H         1 <0>         0.0974
     58 H19        -2.0861    3.3190    5.4373 H         1 <0>         0.1140
     59 H20        -2.0749    1.2714    7.7038 H         1 <0>         0.1033
     60 H21        -0.8016    1.4922    6.4786 H         1 <0>         0.1229
     61 H22        -0.2057    2.6351    8.5978 H         1 <0>         0.1438
     62 H23        -0.4319    3.8089    7.2797 H         1 <0>         0.1386
     63 H24        -2.4674    3.0889    9.2660 H         1 <0>         0.4309
     64 H25        -3.6478    4.9909    8.3957 H         1 <0>         0.1470
     65 H26        -2.3698    5.1353    7.1659 H         1 <0>         0.1382
     66 H27        -4.3278    3.9056    6.2716 H         1 <0>         0.1266
     67 H28        -4.1739    2.7080    7.5805 H         1 <0>         0.1060
     68 H29        -1.5398    4.4484    9.3133 H         1 <0>         0.4376
@<TRIPOS>BOND
     1    1    2 1
     2    1   40 1
     3    1   41 1
     4    1   42 1
     5    2    3 1
     6    2    4 1
     7    2   43 1
     8    3   44 1
     9    3   45 1
    10    3   46 1
    11    4    8 2
    12    4    5 1
    13    5    6 2
    14    5   28 1
    15    6    7 1
    16    6   47 1
    17    7   12 1
    18    7    8 1
    19    8    9 1
    20    9   10 2
    21    9   13 1
    22   10   11 1
    23   11   12 2
    24   11   48 1
    25   13   14 1
    26   13   49 1
    27   14   19 ar
    28   14   15 ar
    29   15   16 ar
    30   15   50 1
    31   16   17 ar
    32   16   22 1
    33   17   18 ar
    34   17   21 1
    35   18   19 ar
    36   18   51 1
    37   19   20 1
    38   22   23 2
    39   22   24 am
    40   24   25 1
    41   24   52 1
    42   25   27 1
    43   25   26 1
    44   25   53 1
    45   26   27 1
    46   26   54 1
    47   26   55 1
    48   27   56 1
    49   27   57 1
    50   28   32 1
    51   28   29 2
    52   29   30 1
    53   30   31 2
    54   31   32 1
    55   31   33 1
    56   33   34 1
    57   34   39 1
    58   34   35 1
    59   34   58 1
    60   35   36 1
    61   35   59 1
    62   35   60 1
    63   36   37 1
    64   36   61 1
    65   36   62 1
    66   37   38 1
    67   37   63 1
    68   37   68 1
    69   38   39 1
    70   38   64 1
    71   38   65 1
    72   39   66 1
    73   39   67 1
@<TRIPOS>MOLECULE
CHEMBL191913
   58    62     0     0     0
SMALL
USER_CHARGES

@<TRIPOS>ATOM
      1 C1         -0.6424    1.7717   -0.1518 C.3       1 <0>        -0.1579
      2 C2         -0.2413    0.2953   -0.1602 C.3       1 <0>        -0.0227
      3 C3          0.7234    0.0222    0.9955 C.3       1 <0>        -0.1569
      4 C4         -1.4715   -0.5604   -0.0004 C.2       1 <0>        -0.0122
      5 C5         -2.3714   -0.5423    1.0825 C.2       1 <0>        -0.0970
      6 C6         -3.3508   -1.4829    0.8194 C.2       1 <0>         0.1192
      7 N1         -3.0860   -2.0636   -0.3630 N.pl3     1 <0>        -0.2296
      8 C7         -1.9351   -1.5065   -0.8888 C.2       1 <0>        -0.1093
      9 C8         -1.4723   -1.9715   -2.1439 C.2       1 <0>         0.5394
     10 N2         -2.1518   -2.9160   -2.7728 N.2       1 <0>        -0.6229
     11 C9         -3.2608   -3.4406   -2.2546 C.2       1 <0>         0.3350
     12 N3         -3.7371   -3.0640   -1.1000 N.2       1 <0>        -0.3419
     13 N4         -0.3260   -1.4449   -2.7044 N.pl3     1 <0>        -0.6145
     14 C10         0.0516   -1.8124   -4.0021 C.ar      1 <0>         0.0992
     15 C11        -0.8876   -2.3358   -4.8734 C.ar      1 <0>        -0.0422
     16 C12        -0.5078   -2.7008   -6.1670 C.ar      1 <0>        -0.1541
     17 C13         0.8204   -2.5349   -6.5740 C.ar      1 <0>         0.1852
     18 C14         1.7507   -2.0113   -5.6962 C.ar      1 <0>        -0.1741
     19 C15         1.3710   -1.6454   -4.4167 C.ar      1 <0>         0.1354
     20 F1          2.2839   -1.1289   -3.5652 F         1 <0>        -0.1187
     21 F2          1.1934   -2.8867   -7.8239 F         1 <0>        -0.0993
     22 C16        -1.5040   -3.2601   -7.1011 C.2       1 <0>         0.5754
     23 O1         -1.1712   -3.5771   -8.2267 O.2       1 <0>        -0.4974
     24 N5         -2.7829   -3.4193   -6.7065 N.am      1 <0>        -0.5941
     25 O2         -3.7388   -3.9559   -7.6029 O.3       1 <0>        -0.1369
     26 C17        -5.0526   -4.0687   -7.0523 C.3       1 <0>        -0.0032
     27 C18        -2.2850    0.3213    2.2791 C.2       1 <0>         0.2455
     28 N6         -1.3586    1.2177    2.5273 N.2       1 <0>        -0.2657
     29 N7         -1.6028    1.7780    3.6594 N.2       1 <0>        -0.2780
     30 C19        -2.6848    1.2666    4.1746 C.2       1 <0>         0.1724
     31 O3         -3.1459    0.3393    3.3161 O.3       1 <0>        -0.2195
     32 C20        -3.3096    1.6485    5.4918 C.3       1 <0>         0.0068
     33 C21        -4.3137    2.7815    5.2705 C.3       1 <0>        -0.1613
     34 C22        -4.0206    4.1258    5.9395 C.3       1 <0>        -0.1708
     35 C23        -5.1439    3.2345    6.4731 C.3       1 <0>        -0.1703
     36 H1          0.2474    2.3906   -0.2674 H         1 <0>         0.0661
     37 H2         -1.3297    1.9662   -0.9751 H         1 <0>         0.0486
     38 H3         -1.1306    2.0102    0.7931 H         1 <0>         0.0918
     39 H4          0.2469    0.0567   -1.1051 H         1 <0>         0.0594
     40 H5          0.2352    0.2608    1.9404 H         1 <0>         0.0895
     41 H6          1.0092   -1.0296    0.9895 H         1 <0>         0.0493
     42 H7          1.6132    0.6411    0.8799 H         1 <0>         0.0668
     43 H8         -4.1901   -1.7128    1.4590 H         1 <0>         0.1952
     44 H9         -3.7807   -4.2095   -2.8068 H         1 <0>         0.2257
     45 H10         0.2181   -0.8204   -2.1996 H         1 <0>         0.4310
     46 H11        -1.9115   -2.4620   -4.5538 H         1 <0>         0.1817
     47 H12         2.7759   -1.8835   -6.0109 H         1 <0>         0.1683
     48 H13        -3.0484   -3.1664   -5.8085 H         1 <0>         0.4067
     49 H14        -5.0265   -4.7226   -6.1807 H         1 <0>         0.0588
     50 H15        -5.4082   -3.0819   -6.7557 H         1 <0>         0.0573
     51 H16        -5.7254   -4.4875   -7.8007 H         1 <0>         0.1167
     52 H17        -3.8234    0.7849    5.9141 H         1 <0>         0.1035
     53 H18        -2.5323    1.9811    6.1797 H         1 <0>         0.1152
     54 H19        -4.7936    2.7999    4.2920 H         1 <0>         0.1071
     55 H20        -3.1125    4.2031    6.5373 H         1 <0>         0.1012
     56 H21        -4.3076    5.0291    5.4011 H         1 <0>         0.0975
     57 H22        -6.1699    3.5514    6.2858 H         1 <0>         0.0993
     58 H23        -4.9748    2.7255    7.4220 H         1 <0>         0.1001
@<TRIPOS>BOND
     1    1    2 1
     2    1   36 1
     3    1   37 1
     4    1   38 1
     5    2    3 1
     6    2    4 1
     7    2   39 1
     8    3   40 1
     9    3   41 1
    10    3   42 1
    11    4    8 2
    12    4    5 1
    13    5    6 2
    14    5   27 1
    15    6    7 1
    16    6   43 1
    17    7   12 1
    18    7    8 1
    19    8    9 1
    20    9   10 2
    21    9   13 1
    22   10   11 1
    23   11   12 2
    24   11   44 1
    25   13   14 1
    26   13   45 1
    27   14   19 ar
    28   14   15 ar
    29   15   16 ar
    30   15   46 1
    31   16   17 ar
    32   16   22 1
    33   17   18 ar
    34   17   21 1
    35   18   19 ar
    36   18   47 1
    37   19   20 1
    38   22   23 2
    39   22   24 am
    40   24   25 1
    41   24   48 1
    42   25   26 1
    43   26   49 1
    44   26   50 1
    45   26   51 1
    46   27   31 1
    47   27   28 2
    48   28   29 1
    49   29   30 2
    50   30   31 1
    51   30   32 1
    52   32   33 1
    53   32   52 1
    54   32   53 1
    55   33   35 1
    56   33   34 1
    57   33   54 1
    58   34   35 1
    59   34   55 1
    60   34   56 1
    61   35   57 1
    62   35   58 1
@<TRIPOS>MOLECULE
CHEMBL452288
   52    56     0     0     0
SMALL
USER_CHARGES

@<TRIPOS>ATOM
      1 C1         -1.1861    1.0255   -0.4167 C.3       1 <0>        -0.1156
      2 C2         -1.7126   -0.2505    0.1882 C.ar      1 <0>        -0.0661
      3 C3         -2.9523   -0.7336   -0.1890 C.ar      1 <0>        -0.1346
      4 C4         -3.4387   -1.9041    0.3633 C.ar      1 <0>        -0.0949
      5 C5         -2.6871   -2.5947    1.2941 C.ar      1 <0>        -0.1252
      6 C6         -1.4421   -2.1123    1.6749 C.ar      1 <0>         0.1634
      7 C7         -0.9541   -0.9390    1.1143 C.ar      1 <0>        -0.1472
      8 N1         -0.6785   -2.8093    2.6179 N.am      1 <0>        -0.6808
      9 C8         -0.7427   -4.1543    2.6757 C.2       1 <0>         0.7038
     10 O1         -1.3900   -4.7681    1.8495 O.2       1 <0>        -0.5492
     11 N2         -0.0895   -4.8189    3.6494 N.am      1 <0>        -0.6830
     12 C9         -0.0661   -6.2184    3.6472 C.ar      1 <0>         0.1710
     13 C10        -0.0546   -6.9099    2.4421 C.ar      1 <0>        -0.1149
     14 C11        -0.0310   -8.2886    2.4371 C.ar      1 <0>        -0.0766
     15 C12        -0.0187   -8.9888    3.6428 C.ar      1 <0>        -0.0429
     16 C13        -0.0303   -8.2924    4.8507 C.ar      1 <0>        -0.0914
     17 C14        -0.0485   -6.9136    4.8501 C.ar      1 <0>        -0.1415
     18 C15         0.0061  -10.4713    3.6404 C.2       1 <0>        -0.2523
     19 C16        -1.0769  -11.2029    3.1228 C.2       1 <0>         0.2394
     20 N3         -1.0477  -12.5165    3.1246 N.2       1 <0>        -0.5014
     21 C17         0.0002  -13.1894    3.6124 C.2       1 <0>         0.3264
     22 C18         0.2699  -14.5602    3.7271 C.2       1 <0>        -0.1836
     23 C19         1.5329  -14.6855    4.3213 C.2       1 <0>         0.1346
     24 N4          2.0101  -13.4882    4.5571 N.2       1 <0>        -0.3229
     25 N5          1.0848  -12.5298    4.1296 N.pl3     1 <0>        -0.3427
     26 C20         1.1039  -11.1606    4.1451 C.2       1 <0>         0.5034
     27 N6          2.1854  -10.4800    4.6551 N.pl3     1 <0>        -0.8230
     28 C21        -0.6125  -15.6660    3.3016 C.2       1 <0>        -0.0382
     29 C22        -0.3149  -16.7617    2.5352 C.2       1 <0>        -0.1654
     30 C23        -1.3157  -17.6726    2.2662 C.2       1 <0>        -0.1507
     31 C24        -2.5577  -17.4569    2.7662 C.2       1 <0>        -0.1900
     32 S1         -2.3422  -15.9262    3.6590 S.3       1 <0>         0.0541
     33 H1         -0.6231    0.7937   -1.3208 H         1 <0>         0.0723
     34 H2         -2.0207    1.6806   -0.6664 H         1 <0>         0.0690
     35 H3         -0.5338    1.5250    0.2995 H         1 <0>         0.0665
     36 H4         -3.5420   -0.1953   -0.9163 H         1 <0>         0.1240
     37 H5         -4.4073   -2.2787    0.0669 H         1 <0>         0.1271
     38 H6         -3.0677   -3.5088    1.7254 H         1 <0>         0.1357
     39 H7          0.0157   -0.5633    1.4053 H         1 <0>         0.1246
     40 H8         -0.1030   -2.3245    3.2299 H         1 <0>         0.4087
     41 H9          0.3643   -4.3273    4.3518 H         1 <0>         0.4097
     42 H10        -0.0645   -6.3670    1.5085 H         1 <0>         0.1403
     43 H11        -0.0225   -8.8256    1.5001 H         1 <0>         0.1308
     44 H12        -0.0208   -8.8324    5.7860 H         1 <0>         0.1277
     45 H13        -0.0530   -6.3736    5.7854 H         1 <0>         0.1297
     46 H14        -1.9354  -10.6839    2.7229 H         1 <0>         0.1809
     47 H15         2.0311  -15.6165    4.5482 H         1 <0>         0.2032
     48 H16         2.1873   -9.5100    4.6650 H         1 <0>         0.4252
     49 H17         2.9460  -10.9701    5.0046 H         1 <0>         0.4177
     50 H18         0.6828  -16.9093    2.1490 H         1 <0>         0.1311
     51 H19        -1.1125  -18.5463    1.6647 H         1 <0>         0.1312
     52 H20        -3.4476  -18.0588    2.6559 H         1 <0>         0.1826
@<TRIPOS>BOND
     1    1    2 1
     2    1   33 1
     3    1   34 1
     4    1   35 1
     5    2    7 ar
     6    2    3 ar
     7    3    4 ar
     8    3   36 1
     9    4    5 ar
    10    4   37 1
    11    5    6 ar
    12    5   38 1
    13    6    7 ar
    14    6    8 1
    15    7   39 1
    16    8    9 am
    17    8   40 1
    18    9   10 2
    19    9   11 am
    20   11   12 1
    21   11   41 1
    22   12   17 ar
    23   12   13 ar
    24   13   14 ar
    25   13   42 1
    26   14   15 ar
    27   14   43 1
    28   15   16 ar
    29   15   18 1
    30   16   17 ar
    31   16   44 1
    32   17   45 1
    33   18   26 2
    34   18   19 1
    35   19   20 2
    36   19   46 1
    37   20   21 1
    38   21   25 1
    39   21   22 2
    40   22   23 1
    41   22   28 1
    42   23   24 2
    43   23   47 1
    44   24   25 1
    45   25   26 1
    46   26   27 1
    47   27   48 1
    48   27   49 1
    49   28   32 1
    50   28   29 2
    51   29   30 1
    52   29   50 1
    53   30   31 2
    54   30   51 1
    55   31   32 1
    56   31   52 1
@<TRIPOS>MOLECULE
CHEMBL461293
   65    69     0     0     0
SMALL
USER_CHARGES

@<TRIPOS>ATOM
      1 C1          1.4103    1.8212    0.2172 C.3       1 <0>        -0.1140
      2 C2          1.1829    0.3320    0.1748 C.2       1 <0>         0.2825
      3 C3          0.9621   -0.4184   -0.9635 C.2       1 <0>        -0.3847
      4 C4          0.7958   -1.8116   -0.5201 C.2       1 <0>         0.5595
      5 O1          0.5836   -2.7799   -1.2259 O.2       1 <0>        -0.5208
      6 N1          0.9249   -1.8044    0.8230 N.am      1 <0>        -0.3631
      7 N2          1.1665   -0.4920    1.2398 N.pl3     1 <0>        -0.3545
      8 C5          1.3692   -0.0746    2.6294 C.3       1 <0>         0.0623
      9 C6          2.8013   -0.3259    3.0257 C.2       1 <0>         0.3290
     10 O2          3.5730   -0.8042    2.2295 O.2       1 <0>        -0.4255
     11 C7          3.2703    0.0198    4.4155 C.3       1 <0>        -0.2023
     12 C8          0.8370   -2.9232    1.6577 C.ar      1 <0>         0.1357
     13 C9          1.8473   -3.1899    2.5727 C.ar      1 <0>        -0.1382
     14 C10         1.7572   -4.2952    3.3959 C.ar      1 <0>        -0.1034
     15 C11         0.6629   -5.1362    3.3095 C.ar      1 <0>        -0.1092
     16 C12        -0.3447   -4.8734    2.3995 C.ar      1 <0>        -0.0999
     17 C13        -0.2635   -3.7666    1.5774 C.ar      1 <0>        -0.0970
     18 C14         0.9038    0.0767   -2.3442 C.2       1 <0>         0.6164
     19 O3          1.0587    1.2619   -2.5726 O.2       1 <0>        -0.5308
     20 N3          0.6788   -0.7814   -3.3588 N.am      1 <0>        -0.6632
     21 C15         0.7353   -0.3300   -4.6832 C.ar      1 <0>         0.1951
     22 C16         1.0907   -1.2056   -5.7008 C.ar      1 <0>        -0.1465
     23 C17         1.1461   -0.7610   -7.0071 C.ar      1 <0>        -0.0628
     24 C18         0.8470    0.5603   -7.3040 C.ar      1 <0>         0.0151
     25 C19         0.4914    1.4377   -6.2871 C.ar      1 <0>         0.1143
     26 C20         0.4306    0.9918   -4.9798 C.ar      1 <0>        -0.1597
     27 F1          0.2005    2.7250   -6.5762 F         1 <0>        -0.1233
     28 O4          0.9024    0.9973   -8.5907 O.3       1 <0>        -0.2346
     29 C21         1.9340    1.8018   -8.9457 C.ar      1 <0>         0.1944
     30 C22         2.9601    2.0794   -8.0588 C.ar      1 <0>        -0.2765
     31 C23         4.0041    2.9066   -8.4507 C.ar      1 <0>         0.1812
     32 N4          4.0514    3.4408   -9.6489 N.ar      1 <0>        -0.5018
     33 C24         3.0940    3.2152  -10.5559 C.ar      1 <0>         0.1970
     34 C25         1.9981    2.3779  -10.2344 C.ar      1 <0>        -0.1472
     35 C26         0.9980    2.1388  -11.1889 C.ar      1 <0>        -0.0336
     36 C27         1.0879    2.7086  -12.4211 C.ar      1 <0>        -0.2017
     37 C28         2.1682    3.5329  -12.7510 C.ar      1 <0>         0.1572
     38 C29         3.1597    3.7951  -11.8334 C.ar      1 <0>        -0.1521
     39 O5          2.2346    4.0893  -13.9884 O.3       1 <0>        -0.3117
     40 C30         1.1702    3.7881  -14.8931 C.3       1 <0>         0.0242
     41 H1          2.4764    2.0286    0.1257 H         1 <0>         0.1041
     42 H2          0.8761    2.2939   -0.6069 H         1 <0>         0.1226
     43 H3          1.0428    2.2180    1.1636 H         1 <0>         0.0813
     44 H4          1.1466    0.9881    2.7258 H         1 <0>         0.1495
     45 H5          0.7067   -0.6450    3.2804 H         1 <0>         0.1322
     46 H6          2.6919   -0.5465    5.1455 H         1 <0>         0.1004
     47 H7          4.3264   -0.2308    4.5154 H         1 <0>         0.0934
     48 H8          3.1319    1.0867    4.5908 H         1 <0>         0.1023
     49 H9          2.7025   -2.5338    2.6402 H         1 <0>         0.1348
     50 H10         2.5424   -4.5031    4.1076 H         1 <0>         0.1328
     51 H11         0.5952   -6.0002    3.9538 H         1 <0>         0.1328
     52 H12        -1.1981   -5.5322    2.3345 H         1 <0>         0.1364
     53 H13        -1.0529   -3.5595    0.8701 H         1 <0>         0.1325
     54 H14         0.4776   -1.7117   -3.1717 H         1 <0>         0.4260
     55 H15         1.3241   -2.2347   -5.4705 H         1 <0>         0.1449
     56 H16         1.4229   -1.4425   -7.7979 H         1 <0>         0.1488
     57 H17         0.1502    1.6721   -4.1893 H         1 <0>         0.1729
     58 H18         2.9484    1.6546   -7.0659 H         1 <0>         0.1392
     59 H19         4.7990    3.1166   -7.7504 H         1 <0>         0.1637
     60 H20         0.1588    1.5037  -10.9462 H         1 <0>         0.1390
     61 H21         0.3161    2.5218  -13.1531 H         1 <0>         0.1371
     62 H22         3.9899    4.4331  -12.0982 H         1 <0>         0.1471
     63 H23         1.3460    4.2943  -15.8423 H         1 <0>         0.1036
     64 H24         1.1272    2.7115  -15.0580 H         1 <0>         0.0583
     65 H25         0.2256    4.1288  -14.4692 H         1 <0>         0.0584
@<TRIPOS>BOND
     1    1    2 1
     2    1   41 1
     3    1   42 1
     4    1   43 1
     5    2    7 1
     6    2    3 2
     7    3    4 1
     8    3   18 1
     9    4    5 2
    10    4    6 am
    11    6    7 1
    12    6   12 1
    13    7    8 1
    14    8    9 1
    15    8   44 1
    16    8   45 1
    17    9   10 2
    18    9   11 1
    19   11   46 1
    20   11   47 1
    21   11   48 1
    22   12   17 ar
    23   12   13 ar
    24   13   14 ar
    25   13   49 1
    26   14   15 ar
    27   14   50 1
    28   15   16 ar
    29   15   51 1
    30   16   17 ar
    31   16   52 1
    32   17   53 1
    33   18   19 2
    34   18   20 am
    35   20   21 1
    36   20   54 1
    37   21   26 ar
    38   21   22 ar
    39   22   23 ar
    40   22   55 1
    41   23   24 ar
    42   23   56 1
    43   24   25 ar
    44   24   28 1
    45   25   26 ar
    46   25   27 1
    47   26   57 1
    48   28   29 1
    49   29   34 ar
    50   29   30 ar
    51   30   31 ar
    52   30   58 1
    53   31   32 ar
    54   31   59 1
    55   32   33 ar
    56   33   38 ar
    57   33   34 ar
    58   34   35 ar
    59   35   36 ar
    60   35   60 1
    61   36   37 ar
    62   36   61 1
    63   37   38 ar
    64   37   39 1
    65   38   62 1
    66   39   40 1
    67   40   63 1
    68   40   64 1
    69   40   65 1
@<TRIPOS>MOLECULE
CHEMBL194939
   50    53     0     0     0
SMALL
USER_CHARGES

@<TRIPOS>ATOM
      1 C1         -0.6157    1.2192   -0.5331 C.3       1 <0>        -0.1503
      2 C2         -0.4497   -0.2901   -0.3448 C.3       1 <0>        -0.6102
      3 S1          0.6229   -0.6069    1.0834 S.o2      1 <0>         2.4974
      4 O1          1.9487   -0.1782    0.8045 O.2       1 <0>        -0.9255
      5 O2         -0.0292   -0.2115    2.2824 O.2       1 <0>        -0.9376
      6 C3          0.7307   -2.3625    1.1881 C.ar      1 <0>        -0.6677
      7 C4         -0.1905   -3.0662    1.9419 C.ar      1 <0>        -0.0085
      8 C5         -0.1108   -4.4439    2.0283 C.ar      1 <0>        -0.2003
      9 C6          0.8937   -5.1233    1.3587 C.ar      1 <0>         0.1455
     10 C7          1.8220   -4.4150    0.5986 C.ar      1 <0>         0.1290
     11 C8          1.7323   -3.0331    0.5121 C.ar      1 <0>        -0.0391
     12 N1          2.8395   -5.0963   -0.0803 N.pl3     1 <0>        -0.6058
     13 C9          3.8358   -4.3881   -0.7209 C.2       1 <0>         0.4493
     14 N2          3.9824   -3.0843   -0.6963 N.2       1 <0>        -0.5135
     15 C10         5.0574   -2.7554   -1.4297 C.2       1 <0>         0.0220
     16 C11         5.5872   -3.9036   -1.9207 C.2       1 <0>        -0.0310
     17 O3          4.8171   -4.9208   -1.4665 O.3       1 <0>        -0.2090
     18 C12         6.7808   -4.0223   -2.7828 C.ar      1 <0>         0.0025
     19 C13         7.4858   -2.8780   -3.1648 C.ar      1 <0>        -0.1000
     20 C14         8.6009   -2.9888   -3.9702 C.ar      1 <0>        -0.1053
     21 C15         9.0269   -4.2297   -4.4035 C.ar      1 <0>        -0.1062
     22 C16         8.3321   -5.3794   -4.0294 C.ar      1 <0>        -0.0212
     23 C17         7.2104   -5.2770   -3.2130 C.ar      1 <0>        -0.0982
     24 C18         8.7922   -6.7106   -4.4964 C.2       1 <0>        -0.0843
     25 C19         9.9187   -6.8309   -5.3044 C.2       1 <0>        -0.1503
     26 C20        10.3072   -8.0610   -5.7096 C.2       1 <0>        -0.1685
     27 S2          9.0792   -9.1133   -4.9547 S.3       1 <0>         0.0489
     28 C21         8.1224   -7.8468   -4.1381 C.2       1 <0>        -0.1663
     29 O4          0.9738   -6.4782    1.4435 O.3       1 <0>        -0.3180
     30 C22        -0.0115   -7.1377    2.2411 C.3       1 <0>         0.0254
     31 H1          0.3602    1.6736   -0.7037 H         1 <0>         0.0752
     32 H2         -1.2602    1.4096   -1.3913 H         1 <0>         0.0844
     33 H3         -1.0655    1.6496    0.3616 H         1 <0>         0.0742
     34 H4         -1.4257   -0.7445   -0.1742 H         1 <0>         0.1340
     35 H5          0.0001   -0.7205   -1.2396 H         1 <0>         0.1351
     36 H6         -0.9742   -2.5383    2.4649 H         1 <0>         0.1471
     37 H7         -0.8317   -4.9904    2.6182 H         1 <0>         0.1456
     38 H8          2.4476   -2.4814   -0.0797 H         1 <0>         0.2063
     39 H9          2.8442   -6.0661   -0.1003 H         1 <0>         0.4324
     40 H10         5.4326   -1.7569   -1.5987 H         1 <0>         0.1946
     41 H11         7.1573   -1.9053   -2.8294 H         1 <0>         0.1329
     42 H12         9.1427   -2.1017   -4.2634 H         1 <0>         0.1342
     43 H13         9.9001   -4.3094   -5.0340 H         1 <0>         0.1288
     44 H14         6.6721   -6.1653   -2.9173 H         1 <0>         0.1267
     45 H15        10.4743   -5.9546   -5.6038 H         1 <0>         0.1388
     46 H16        11.1460   -8.3364   -6.3316 H         1 <0>         0.1890
     47 H17         7.2416   -7.9512   -3.5219 H         1 <0>         0.1862
     48 H18         0.0501   -6.7759    3.2675 H         1 <0>         0.0626
     49 H19        -1.0033   -6.9275    1.8407 H         1 <0>         0.0621
     50 H20         0.1669   -8.2129    2.2236 H         1 <0>         0.1066
@<TRIPOS>BOND
     1    1    2 1
     2    1   31 1
     3    1   32 1
     4    1   33 1
     5    2    3 1
     6    2   34 1
     7    2   35 1
     8    3    4 2
     9    3    5 2
    10    3    6 1
    11    6   11 ar
    12    6    7 ar
    13    7    8 ar
    14    7   36 1
    15    8    9 ar
    16    8   37 1
    17    9   10 ar
    18    9   29 1
    19   10   11 ar
    20   10   12 1
    21   11   38 1
    22   12   13 1
    23   12   39 1
    24   13   17 1
    25   13   14 2
    26   14   15 1
    27   15   16 2
    28   15   40 1
    29   16   17 1
    30   16   18 1
    31   18   23 ar
    32   18   19 ar
    33   19   20 ar
    34   19   41 1
    35   20   21 ar
    36   20   42 1
    37   21   22 ar
    38   21   43 1
    39   22   23 ar
    40   22   24 1
    41   23   44 1
    42   24   28 2
    43   24   25 1
    44   25   26 2
    45   25   45 1
    46   26   27 1
    47   26   46 1
    48   27   28 1
    49   28   47 1
    50   29   30 1
    51   30   48 1
    52   30   49 1
    53   30   50 1
@<TRIPOS>MOLECULE
CHEMBL366452
   58    62     0     0     0
SMALL
USER_CHARGES

@<TRIPOS>ATOM
      1 C1          0.1471    1.7701    0.3670 C.3       1 <0>        -0.6753
      2 S1          0.1396   -0.0421    0.2854 S.o2      1 <0>         2.6102
      3 O1          0.9775   -0.5811    1.2985 O.2       1 <0>        -0.9521
      4 O2         -1.1880   -0.5188    0.1138 O.2       1 <0>        -0.9524
      5 N1          0.9067   -0.4072   -1.1361 N.pl3     1 <0>        -1.0014
      6 C2          0.1501   -0.5358   -2.3908 C.3       1 <0>         0.1263
      7 C3          0.8207    0.3390   -3.4554 C.3       1 <0>         0.0397
      8 N2          2.2436   -0.0136   -3.5491 N.3       1 <0>        -0.5290
      9 C4          2.9461    0.2663   -2.2897 C.3       1 <0>         0.0339
     10 C5          2.3634   -0.6055   -1.1784 C.3       1 <0>         0.1263
     11 C6          2.8847    0.6794   -4.6747 C.3       1 <0>         0.0925
     12 C7          4.2648    0.1144   -4.8921 C.ar      1 <0>        -0.0728
     13 C8          5.3470    0.6652   -4.2292 C.ar      1 <0>        -0.1136
     14 C9          6.6129    0.1520   -4.4239 C.ar      1 <0>        -0.0991
     15 C10         6.8003   -0.9241   -5.2909 C.ar      1 <0>        -0.0487
     16 C11         5.7055   -1.4751   -5.9562 C.ar      1 <0>        -0.0983
     17 C12         4.4436   -0.9566   -5.7494 C.ar      1 <0>        -0.0931
     18 C13         8.1573   -1.4796   -5.5047 C.2       1 <0>        -0.0278
     19 C14         9.1635   -0.6938   -6.1146 C.2       1 <0>        -0.1230
     20 C15        10.3954   -1.2034   -6.3067 C.2       1 <0>         0.0524
     21 N3         10.6951   -2.4780   -5.9203 N.pl3     1 <0>        -0.3530
     22 C16         9.7487   -3.2728   -5.3256 C.2       1 <0>         0.2301
     23 C17         8.4552   -2.7696   -5.1050 C.2       1 <0>        -0.0622
     24 N4         10.3029   -4.4500   -5.0562 N.2       1 <0>        -0.4862
     25 C18        11.5715   -4.4448   -5.4546 C.2       1 <0>         0.0645
     26 C19        11.8498   -3.2236   -6.0008 C.2       1 <0>        -0.0348
     27 C20        13.1414   -2.7873   -6.5690 C.ar      1 <0>        -0.0037
     28 C21        13.4454   -1.4271   -6.6570 C.ar      1 <0>        -0.1312
     29 C22        14.6534   -1.0266   -7.1888 C.ar      1 <0>        -0.1093
     30 C23        15.5630   -1.9691   -7.6350 C.ar      1 <0>        -0.1209
     31 C24        15.2682   -3.3185   -7.5513 C.ar      1 <0>        -0.1082
     32 C25        14.0667   -3.7333   -7.0155 C.ar      1 <0>        -0.1039
     33 H1          1.1759    2.1299    0.3601 H         1 <0>         0.1253
     34 H2         -0.3851    2.1748   -0.4939 H         1 <0>         0.1255
     35 H3         -0.3452    2.0945    1.2838 H         1 <0>         0.1289
     36 H4          0.1544   -1.5762   -2.7159 H         1 <0>         0.0845
     37 H5         -0.8758   -0.2020   -2.2356 H         1 <0>         0.0948
     38 H6          0.3402    0.1714   -4.4193 H         1 <0>         0.0909
     39 H7          0.7236    1.3885   -3.1777 H         1 <0>         0.0393
     40 H8          4.0070    0.0459   -2.4082 H         1 <0>         0.0947
     41 H9          2.8193    1.3168   -2.0282 H         1 <0>         0.0379
     42 H10         2.8001   -0.3177   -0.2221 H         1 <0>         0.0940
     43 H11         2.5846   -1.6527   -1.3848 H         1 <0>         0.0837
     44 H12         2.2880    0.5378   -5.5758 H         1 <0>         0.0876
     45 H13         2.9588    1.7437   -4.4514 H         1 <0>         0.0453
     46 H14         5.2007    1.4988   -3.5583 H         1 <0>         0.1221
     47 H15         7.4571    0.5831   -3.9062 H         1 <0>         0.1247
     48 H16         5.8445   -2.3085   -6.6288 H         1 <0>         0.1259
     49 H17         3.5944   -1.3850   -6.2609 H         1 <0>         0.1273
     50 H18         8.9433    0.3164   -6.4270 H         1 <0>         0.1545
     51 H19        11.1564   -0.5955   -6.7731 H         1 <0>         0.1673
     52 H20         7.7024   -3.3838   -4.6333 H         1 <0>         0.1558
     53 H21        12.2653   -5.2672   -5.3618 H         1 <0>         0.1854
     54 H22        12.7360   -0.6904   -6.3097 H         1 <0>         0.1190
     55 H23        14.8898    0.0250   -7.2574 H         1 <0>         0.1259
     56 H24        16.5073   -1.6501   -8.0508 H         1 <0>         0.1255
     57 H25        15.9825   -4.0488   -7.9017 H         1 <0>         0.1291
     58 H26        13.8398   -4.7869   -6.9463 H         1 <0>         0.1295
@<TRIPOS>BOND
     1    1    2 1
     2    1   33 1
     3    1   34 1
     4    1   35 1
     5    2    3 2
     6    2    4 2
     7    2    5 1
     8    5   10 1
     9    5    6 1
    10    6    7 1
    11    6   36 1
    12    6   37 1
    13    7    8 1
    14    7   38 1
    15    7   39 1
    16    8    9 1
    17    8   11 1
    18    9   10 1
    19    9   40 1
    20    9   41 1
    21   10   42 1
    22   10   43 1
    23   11   12 1
    24   11   44 1
    25   11   45 1
    26   12   17 ar
    27   12   13 ar
    28   13   14 ar
    29   13   46 1
    30   14   15 ar
    31   14   47 1
    32   15   16 ar
    33   15   18 1
    34   16   17 ar
    35   16   48 1
    36   17   49 1
    37   18   23 2
    38   18   19 1
    39   19   20 2
    40   19   50 1
    41   20   21 1
    42   20   51 1
    43   21   26 1
    44   21   22 1
    45   22   23 1
    46   22   24 2
    47   23   52 1
    48   24   25 1
    49   25   26 2
    50   25   53 1
    51   26   27 1
    52   27   32 ar
    53   27   28 ar
    54   28   29 ar
    55   28   54 1
    56   29   30 ar
    57   29   55 1
    58   30   31 ar
    59   30   56 1
    60   31   32 ar
    61   31   57 1
    62   32   58 1
@<TRIPOS>MOLECULE
CHEMBL366452__1
   59    63     0     0     0
SMALL
USER_CHARGES

@<TRIPOS>ATOM
      1 C1          0.1471    1.7701    0.3670 C.3       1 <0>        -0.6744
      2 S1          0.1396   -0.0421    0.2854 S.o2      1 <0>         2.6095
      3 O1          0.9775   -0.5811    1.2985 O.2       1 <0>        -0.9520
      4 O2         -1.1880   -0.5188    0.1138 O.2       1 <0>        -0.9491
      5 N1          0.9067   -0.4072   -1.1361 N.pl3     1 <0>        -1.0026
      6 C2          0.1501   -0.5358   -2.3908 C.3       1 <0>         0.1258
      7 C3          0.8207    0.3390   -3.4554 C.3       1 <0>         0.0391
      8 N2          2.2436   -0.0136   -3.5491 N.3       1 <0>        -0.5292
      9 C4          2.9461    0.2663   -2.2897 C.3       1 <0>         0.0329
     10 C5          2.3634   -0.6055   -1.1784 C.3       1 <0>         0.1272
     11 C6          2.8847    0.6794   -4.6747 C.3       1 <0>         0.0843
     12 C7          4.2648    0.1144   -4.8921 C.ar      1 <0>        -0.0485
     13 C8          5.3470    0.6652   -4.2292 C.ar      1 <0>        -0.1114
     14 C9          6.6129    0.1520   -4.4239 C.ar      1 <0>        -0.0867
     15 C10         6.8003   -0.9241   -5.2909 C.ar      1 <0>        -0.0953
     16 C11         5.7055   -1.4751   -5.9562 C.ar      1 <0>        -0.0871
     17 C12         4.4436   -0.9566   -5.7494 C.ar      1 <0>        -0.0920
     18 C13         8.1573   -1.4796   -5.5047 C.2       1 <0>         0.0722
     19 C14         9.1635   -0.6938   -6.1146 C.2       1 <0>        -0.1013
     20 C15        10.3954   -1.2034   -6.3067 C.2       1 <0>         0.0844
     21 N3         10.6951   -2.4780   -5.9203 N.pl3     1 <0>        -0.3268
     22 C16         9.7487   -3.2728   -5.3256 C.cat     1 <0>         0.3081
     23 C17         8.4552   -2.7696   -5.1050 C.2       1 <0>        -0.1197
     24 N4         10.3029   -4.4500   -5.0562 N.pl3     1 <0>        -0.4997
     25 C18        11.5715   -4.4448   -5.4546 C.2       1 <0>         0.0755
     26 C19        11.8498   -3.2236   -6.0008 C.2       1 <0>         0.0593
     27 C20        13.1414   -2.7873   -6.5690 C.ar      1 <0>        -0.0543
     28 C21        13.4454   -1.4271   -6.6570 C.ar      1 <0>        -0.1111
     29 C22        14.6534   -1.0266   -7.1888 C.ar      1 <0>        -0.1064
     30 C23        15.5630   -1.9691   -7.6350 C.ar      1 <0>        -0.0891
     31 C24        15.2682   -3.3185   -7.5513 C.ar      1 <0>        -0.1060
     32 C25        14.0667   -3.7333   -7.0155 C.ar      1 <0>        -0.0850
     33 H1          1.1759    2.1299    0.3601 H         1 <0>         0.1247
     34 H2         -0.3851    2.1748   -0.4939 H         1 <0>         0.1262
     35 H3         -0.3452    2.0945    1.2838 H         1 <0>         0.1309
     36 H4          0.1544   -1.5762   -2.7159 H         1 <0>         0.0845
     37 H5         -0.8758   -0.2020   -2.2356 H         1 <0>         0.0975
     38 H6          0.3402    0.1714   -4.4193 H         1 <0>         0.0930
     39 H7          0.7236    1.3885   -3.1777 H         1 <0>         0.0426
     40 H8          4.0070    0.0459   -2.4082 H         1 <0>         0.0904
     41 H9          2.8193    1.3168   -2.0282 H         1 <0>         0.0409
     42 H10         2.8001   -0.3177   -0.2221 H         1 <0>         0.0945
     43 H11         2.5846   -1.6527   -1.3848 H         1 <0>         0.0815
     44 H12         2.2880    0.5378   -5.5758 H         1 <0>         0.0924
     45 H13         2.9588    1.7437   -4.4514 H         1 <0>         0.0508
     46 H14         5.2007    1.4988   -3.5583 H         1 <0>         0.1307
     47 H15         7.4571    0.5831   -3.9062 H         1 <0>         0.1294
     48 H16         5.8445   -2.3085   -6.6288 H         1 <0>         0.1289
     49 H17         3.5944   -1.3850   -6.2609 H         1 <0>         0.1352
     50 H18         8.9433    0.3164   -6.4270 H         1 <0>         0.1846
     51 H19        11.1564   -0.5955   -6.7731 H         1 <0>         0.2003
     52 H20         7.7024   -3.3838   -4.6333 H         1 <0>         0.1820
     53 H21        12.2653   -5.2672   -5.3618 H         1 <0>         0.2312
     54 H22        12.7360   -0.6904   -6.3097 H         1 <0>         0.1228
     55 H23        14.8898    0.0250   -7.2574 H         1 <0>         0.1377
     56 H24        16.5073   -1.6501   -8.0508 H         1 <0>         0.1373
     57 H25        15.9825   -4.0488   -7.9017 H         1 <0>         0.1401
     58 H26        13.8398   -4.7869   -6.9463 H         1 <0>         0.1343
     59 H27         9.8517   -5.1977   -4.6340 H         1 <0>         0.4650
@<TRIPOS>BOND
     1    1    2 1
     2    1   33 1
     3    1   34 1
     4    1   35 1
     5    2    3 2
     6    2    4 2
     7    2    5 1
     8    5   10 1
     9    5    6 1
    10    6    7 1
    11    6   36 1
    12    6   37 1
    13    7    8 1
    14    7   38 1
    15    7   39 1
    16    8    9 1
    17    8   11 1
    18    9   10 1
    19    9   40 1
    20    9   41 1
    21   10   42 1
    22   10   43 1
    23   11   12 1
    24   11   44 1
    25   11   45 1
    26   12   17 ar
    27   12   13 ar
    28   13   14 ar
    29   13   46 1
    30   14   15 ar
    31   14   47 1
    32   15   16 ar
    33   15   18 1
    34   16   17 ar
    35   16   48 1
    36   17   49 1
    37   18   23 2
    38   18   19 1
    39   19   20 2
    40   19   50 1
    41   20   21 1
    42   20   51 1
    43   21   26 1
    44   21   22 1
    45   22   23 1
    46   22   24 2
    47   23   52 1
    48   24   25 1
    49   24   59 1
    50   25   26 2
    51   25   53 1
    52   26   27 1
    53   27   32 ar
    54   27   28 ar
    55   28   29 ar
    56   28   54 1
    57   29   30 ar
    58   29   55 1
    59   30   31 ar
    60   30   56 1
    61   31   32 ar
    62   31   57 1
    63   32   58 1
@<TRIPOS>MOLECULE
CHEMBL200874
   55    58     0     0     0
SMALL
USER_CHARGES

@<TRIPOS>ATOM
      1 C1         -9.2057    1.6107    4.0115 C.3       1 <0>        -0.1544
      2 C2         -7.9894    0.7486    4.3552 C.3       1 <0>         0.0544
      3 C3         -7.6905   -0.2625    3.2228 C.3       1 <0>         0.0571
      4 N1         -7.2733   -1.4614    3.9763 N.am      1 <0>        -0.4972
      5 C4         -7.6301   -1.2886    5.2535 C.2       1 <0>         0.6382
      6 O1         -7.3973   -2.0984    6.1321 O.2       1 <0>        -0.4492
      7 O2         -8.2741   -0.1244    5.4661 O.3       1 <0>        -0.2939
      8 C5         -6.6522   -2.5265    3.4732 C.2       1 <0>         0.4194
      9 C6         -6.1925   -3.5402    4.3394 C.2       1 <0>        -0.3509
     10 C7         -5.5576   -4.6342    3.8479 C.2       1 <0>         0.3094
     11 O3         -5.1213   -5.6009    4.6899 O.3       1 <0>        -0.4155
     12 C8         -5.3441   -4.7683    2.3944 C.2       1 <0>         0.2738
     13 N2         -4.7270   -5.8302    1.9056 N.2       1 <0>        -0.4057
     14 C9         -4.3787   -6.8417    2.7225 C.ar      1 <0>         0.3839
     15 C10        -5.2445   -8.0106    2.8995 C.ar      1 <0>        -0.1426
     16 C11        -6.4650   -8.1401    2.2375 C.ar      1 <0>        -0.1524
     17 C12        -7.2324   -9.2666    2.4474 C.ar      1 <0>         0.1194
     18 C13        -6.7941  -10.2777    3.3187 C.ar      1 <0>         0.1629
     19 C14        -5.6024  -10.1690    3.9762 C.ar      1 <0>        -0.1826
     20 C15        -4.8015   -9.0337    3.7808 C.ar      1 <0>         0.1854
     21 N3         -3.6264   -8.8797    4.3992 N.ar      1 <0>        -0.5192
     22 C16        -2.8894   -7.8108    4.2043 C.ar      1 <0>         0.3178
     23 N4         -3.2266   -6.8222    3.4003 N.ar      1 <0>        -0.5293
     24 O4         -7.5668  -11.3784    3.5100 O.3       1 <0>        -0.2872
     25 C17        -7.0687  -12.3726    4.4074 C.3       1 <0>         0.0543
     26 C18        -8.0680  -13.5280    4.4941 C.3       1 <0>         0.0627
     27 O5         -8.1579  -14.1763    3.2239 O.3       1 <0>        -0.3845
     28 C19        -9.0698  -15.2762    3.1959 C.3       1 <0>         0.0307
     29 O6         -8.4226   -9.3995    1.8065 O.3       1 <0>        -0.2960
     30 C20        -8.8120   -8.3366    0.9343 C.3       1 <0>         0.0214
     31 C21        -5.8228   -3.7138    1.4987 C.2       1 <0>        -0.2895
     32 C22        -6.4581   -2.6365    2.0198 C.2       1 <0>         0.2379
     33 O7         -6.9108   -1.6551    1.1999 O.3       1 <0>        -0.6277
     34 H1         -9.4596    2.2380    4.8660 H         1 <0>         0.0845
     35 H2         -8.9731    2.2418    3.1539 H         1 <0>         0.0976
     36 H3        -10.0511    0.9665    3.7699 H         1 <0>         0.0766
     37 H4         -7.1190    1.3712    4.5622 H         1 <0>         0.1225
     38 H5         -8.5869   -0.4650    2.6368 H         1 <0>         0.1347
     39 H6         -6.8820    0.0962    2.5858 H         1 <0>         0.1494
     40 H7         -6.3471   -3.4447    5.4041 H         1 <0>         0.1908
     41 H8         -6.8063   -7.3653    1.5670 H         1 <0>         0.1483
     42 H9         -5.2778  -10.9535    4.6438 H         1 <0>         0.1551
     43 H10        -1.9490   -7.7392    4.7307 H         1 <0>         0.1956
     44 H11        -6.1123  -12.7461    4.0414 H         1 <0>         0.0784
     45 H12        -6.9332  -11.9345    5.3962 H         1 <0>         0.0840
     46 H13        -7.7317  -14.2437    5.2443 H         1 <0>         0.0753
     47 H14        -9.0475  -13.1409    4.7746 H         1 <0>         0.0634
     48 H15       -10.0701  -14.9253    3.4495 H         1 <0>         0.0435
     49 H16        -9.0805  -15.7140    2.1978 H         1 <0>         0.0887
     50 H17        -8.7543  -16.0282    3.9192 H         1 <0>         0.0424
     51 H18        -8.8872   -7.4095    1.5026 H         1 <0>         0.0569
     52 H19        -8.0668   -8.2209    0.1473 H         1 <0>         0.0618
     53 H20        -9.7789   -8.5687    0.4879 H         1 <0>         0.1075
     54 H21        -5.6748   -3.7960    0.4320 H         1 <0>         0.1667
     55 H22        -5.3074   -5.4239    5.6222 H         1 <0>         0.4254
@<TRIPOS>BOND
     1    1    2 1
     2    1   34 1
     3    1   35 1
     4    1   36 1
     5    2    7 1
     6    2    3 1
     7    2   37 1
     8    3    4 1
     9    3   38 1
    10    3   39 1
    11    4    5 am
    12    4    8 2
    13    5    6 2
    14    5    7 1
    15    8   32 1
    16    8    9 1
    17    9   10 2
    18    9   40 1
    19   10   11 1
    20   10   12 1
    21   11   55 1
    22   12   13 2
    23   12   31 1
    24   13   14 1
    25   14   23 ar
    26   14   15 ar
    27   15   20 ar
    28   15   16 ar
    29   16   17 ar
    30   16   41 1
    31   17   18 ar
    32   17   29 1
    33   18   19 ar
    34   18   24 1
    35   19   20 ar
    36   19   42 1
    37   20   21 ar
    38   21   22 ar
    39   22   23 ar
    40   22   43 1
    41   24   25 1
    42   25   26 1
    43   25   44 1
    44   25   45 1
    45   26   27 1
    46   26   46 1
    47   26   47 1
    48   27   28 1
    49   28   48 1
    50   28   49 1
    51   28   50 1
    52   29   30 1
    53   30   51 1
    54   30   52 1
    55   30   53 1
    56   31   32 2
    57   31   54 1
    58   32   33 1
@<TRIPOS>MOLECULE
CHEMBL200874__1
   56    59     0     0     0
SMALL
USER_CHARGES

@<TRIPOS>ATOM
      1 C1         -9.2057    1.6107    4.0115 C.3       1 <0>        -0.1599
      2 C2         -7.9894    0.7486    4.3552 C.3       1 <0>         0.0616
      3 C3         -7.6904   -0.2625    3.2228 C.3       1 <0>         0.0399
      4 N1         -7.2733   -1.4614    3.9763 N.am      1 <0>        -0.5031
      5 C4         -7.6301   -1.2886    5.2535 C.2       1 <0>         0.6410
      6 O1         -7.3973   -2.0984    6.1321 O.2       1 <0>        -0.4324
      7 O2         -8.2741   -0.1244    5.4661 O.3       1 <0>        -0.2804
      8 C5         -6.6522   -2.5265    3.4732 C.2       1 <0>         0.4483
      9 C6         -6.1925   -3.5402    4.3395 C.2       1 <0>        -0.3268
     10 C7         -5.5576   -4.6342    3.8479 C.2       1 <0>         0.3188
     11 O3         -5.1212   -5.6009    4.6899 O.3       1 <0>        -0.4016
     12 C8         -5.3441   -4.7683    2.3944 C.2       1 <0>         0.2013
     13 N2         -4.7270   -5.8302    1.9056 N.2       1 <0>        -0.2781
     14 C9         -4.3787   -6.8417    2.7225 C.ar      1 <0>         0.3180
     15 C10        -5.2445   -8.0106    2.8995 C.ar      1 <0>        -0.1162
     16 C11        -6.4650   -8.1401    2.2375 C.ar      1 <0>        -0.1796
     17 C12        -7.2324   -9.2666    2.4474 C.ar      1 <0>         0.1470
     18 C13        -6.7941  -10.2777    3.3187 C.ar      1 <0>         0.1690
     19 C14        -5.6024  -10.1690    3.9762 C.ar      1 <0>        -0.1747
     20 C15        -4.8015   -9.0337    3.7808 C.ar      1 <0>         0.1877
     21 N3         -3.6264   -8.8797    4.3992 N.ar      1 <0>        -0.4871
     22 C16        -2.8894   -7.8108    4.2043 C.ar      1 <0>         0.3120
     23 N4         -3.2266   -6.8222    3.4003 N.ar      1 <0>        -0.4971
     24 O4         -7.5668  -11.3784    3.5100 O.3       1 <0>        -0.2820
     25 C17        -7.0687  -12.3726    4.4074 C.3       1 <0>         0.0527
     26 C18        -8.0680  -13.5280    4.4941 C.3       1 <0>         0.0612
     27 O5         -8.1579  -14.1763    3.2239 O.3       1 <0>        -0.3863
     28 C19        -9.0698  -15.2762    3.1959 C.3       1 <0>         0.0301
     29 O6         -8.4226   -9.3995    1.8065 O.3       1 <0>        -0.2872
     30 C20        -8.8120   -8.3366    0.9343 C.3       1 <0>         0.0206
     31 C21        -5.8228   -3.7138    1.4987 C.2       1 <0>        -0.0902
     32 C22        -6.4581   -2.6365    2.0198 C.2       1 <0>         0.1065
     33 O7         -6.9108   -1.6551    1.1999 O.3       1 <0>        -0.4540
     34 H1         -9.4596    2.2380    4.8660 H         1 <0>         0.0924
     35 H2         -8.9730    2.2419    3.1539 H         1 <0>         0.1010
     36 H3        -10.0511    0.9665    3.7699 H         1 <0>         0.0790
     37 H4         -7.1189    1.3712    4.5622 H         1 <0>         0.1300
     38 H5         -8.5869   -0.4650    2.6368 H         1 <0>         0.1412
     39 H6         -6.8819    0.0962    2.5858 H         1 <0>         0.1488
     40 H7         -6.3470   -3.4447    5.4041 H         1 <0>         0.2106
     41 H8         -6.8063   -7.3653    1.5670 H         1 <0>         0.1457
     42 H9         -5.2778  -10.9535    4.6438 H         1 <0>         0.1639
     43 H10        -1.9490   -7.7392    4.7307 H         1 <0>         0.2085
     44 H11        -6.1123  -12.7461    4.0414 H         1 <0>         0.0822
     45 H12        -6.9332  -11.9345    5.3962 H         1 <0>         0.0873
     46 H13        -7.7317  -14.2437    5.2443 H         1 <0>         0.0791
     47 H14        -9.0475  -13.1409    4.7746 H         1 <0>         0.0647
     48 H15        -9.0805  -15.7140    2.1978 H         1 <0>         0.0905
     49 H16        -8.7543  -16.0282    3.9192 H         1 <0>         0.0449
     50 H17       -10.0701  -14.9253    3.4495 H         1 <0>         0.0447
     51 H18        -8.8872   -7.4095    1.5026 H         1 <0>         0.0549
     52 H19        -8.0668   -8.2209    0.1473 H         1 <0>         0.0629
     53 H20        -9.7789   -8.5687    0.4879 H         1 <0>         0.1133
     54 H21        -5.6748   -3.7960    0.4320 H         1 <0>         0.2013
     55 H22        -5.3074   -5.4239    5.6222 H         1 <0>         0.4399
     56 H23        -6.7376   -1.8150    0.2621 H         1 <0>         0.4341
@<TRIPOS>BOND
     1    1    2 1
     2    1   34 1
     3    1   35 1
     4    1   36 1
     5    2    7 1
     6    2    3 1
     7    2   37 1
     8    3    4 1
     9    3   38 1
    10    3   39 1
    11    4    5 am
    12    4    8 2
    13    5    6 2
    14    5    7 1
    15    8   32 1
    16    8    9 1
    17    9   10 2
    18    9   40 1
    19   10   11 1
    20   10   12 1
    21   11   55 1
    22   12   13 2
    23   12   31 1
    24   13   14 1
    25   14   23 ar
    26   14   15 ar
    27   15   20 ar
    28   15   16 ar
    29   16   17 ar
    30   16   41 1
    31   17   18 ar
    32   17   29 1
    33   18   19 ar
    34   18   24 1
    35   19   20 ar
    36   19   42 1
    37   20   21 ar
    38   21   22 ar
    39   22   23 ar
    40   22   43 1
    41   24   25 1
    42   25   26 1
    43   25   44 1
    44   25   45 1
    45   26   27 1
    46   26   46 1
    47   26   47 1
    48   27   28 1
    49   28   48 1
    50   28   49 1
    51   28   50 1
    52   29   30 1
    53   30   51 1
    54   30   52 1
    55   30   53 1
    56   31   32 2
    57   31   54 1
    58   32   33 1
    59   33   56 1
@<TRIPOS>MOLECULE
CHEMBL200874__2
   55    58     0     0     0
SMALL
USER_CHARGES

@<TRIPOS>ATOM
      1 C1          1.1571   -7.3165   -3.8973 C.3       1 <0>        -0.1782
      2 C2          2.1060   -7.2808   -5.0970 C.3       1 <0>         0.0545
      3 C3          2.6454   -5.8500   -5.3331 C.3       1 <0>         0.0572
      4 N1          3.9209   -5.8702   -4.5904 N.am      1 <0>        -0.4960
      5 C4          4.2193   -7.1458   -4.3212 C.2       1 <0>         0.6370
      6 O1          5.2037   -7.4876   -3.6921 O.2       1 <0>        -0.4494
      7 O2          3.3159   -8.0127   -4.8187 O.3       1 <0>        -0.2918
      8 C5          4.6458   -4.8067   -4.2486 C.2       1 <0>         0.4198
      9 C6          5.7756   -4.9692   -3.4201 C.2       1 <0>        -0.3511
     10 C7          6.5285   -3.8991   -3.0601 C.2       1 <0>         0.3093
     11 O3          7.6113   -4.0681   -2.2645 O.3       1 <0>        -0.4155
     12 C8          6.1653   -2.5514   -3.5377 C.2       1 <0>         0.2738
     13 N2          6.8924   -1.5026   -3.1930 N.2       1 <0>        -0.4058
     14 C9          8.0252   -1.6720   -2.4861 C.ar      1 <0>         0.3839
     15 C10         9.3291   -1.7669   -3.1479 C.ar      1 <0>        -0.1425
     16 C11         9.4685   -1.6867   -4.5331 C.ar      1 <0>        -0.1525
     17 C12        10.7250   -1.7824   -5.0934 C.ar      1 <0>         0.1194
     18 C13        11.8578   -1.9591   -4.2816 C.ar      1 <0>         0.1629
     19 C14        11.7418   -2.0403   -2.9236 C.ar      1 <0>        -0.1826
     20 C15        10.4755   -1.9455   -2.3271 C.ar      1 <0>         0.1854
     21 N3         10.3080   -2.0175   -1.0028 N.ar      1 <0>        -0.5193
     22 C16         9.1154   -1.9264   -0.4613 C.ar      1 <0>         0.3178
     23 N4          8.0059   -1.7549   -1.1520 N.ar      1 <0>        -0.5294
     24 O4         13.0855   -2.0508   -4.8557 O.3       1 <0>        -0.2872
     25 C17        14.1998   -2.2299   -3.9792 C.3       1 <0>         0.0544
     26 C18        15.4876   -2.3110   -4.8014 C.3       1 <0>         0.0627
     27 O5         15.7163   -1.0599   -5.4529 O.3       1 <0>        -0.3845
     28 C19        16.9009   -1.0285   -6.2515 C.3       1 <0>         0.0307
     29 O6         10.8685   -1.7057   -6.4419 O.3       1 <0>        -0.2960
     30 C20         9.6781   -1.5262   -7.2118 C.3       1 <0>         0.0214
     31 C21         4.9917   -2.3871   -4.3975 C.2       1 <0>        -0.2896
     32 C22         4.2636   -3.4760   -4.7438 C.2       1 <0>         0.2380
     33 O7          3.1770   -3.3376   -5.5441 O.3       1 <0>        -0.6276
     34 H1          1.6561   -6.8910   -3.0266 H         1 <0>         0.0637
     35 H2          0.2631   -6.7354   -4.1237 H         1 <0>         0.0981
     36 H3          0.8761   -8.3484   -3.6868 H         1 <0>         0.0862
     37 H4          1.6151   -7.6652   -5.9911 H         1 <0>         0.1541
     38 H5          2.8171   -5.6703   -6.3944 H         1 <0>         0.1351
     39 H6          1.9661   -5.1057   -4.9175 H         1 <0>         0.1499
     40 H7          6.0439   -5.9545   -3.0686 H         1 <0>         0.1907
     41 H8          8.6005   -1.5513   -5.1613 H         1 <0>         0.1483
     42 H9         12.6210   -2.1769   -2.3113 H         1 <0>         0.1551
     43 H10         9.0394   -1.9917    0.6140 H         1 <0>         0.1955
     44 H11        14.2603   -1.3864   -3.2914 H         1 <0>         0.0784
     45 H12        14.0718   -3.1522   -3.4126 H         1 <0>         0.0840
     46 H13        16.3260   -2.5360   -4.1421 H         1 <0>         0.0753
     47 H14        15.3921   -3.0981   -5.5494 H         1 <0>         0.0634
     48 H15        16.8348   -1.7890   -7.0296 H         1 <0>         0.0435
     49 H16        17.0029   -0.0457   -6.7117 H         1 <0>         0.0887
     50 H17        17.7686   -1.2270   -5.6224 H         1 <0>         0.0424
     51 H18         9.0023   -2.3632   -7.0364 H         1 <0>         0.0569
     52 H19         9.1906   -0.5973   -6.9158 H         1 <0>         0.0618
     53 H20         9.9335   -1.4811   -8.2705 H         1 <0>         0.1075
     54 H21         4.7116   -1.4076   -4.7560 H         1 <0>         0.1667
     55 H22         7.7683   -4.9860   -2.0038 H         1 <0>         0.4253
@<TRIPOS>BOND
     1    1    2 1
     2    1   34 1
     3    1   35 1
     4    1   36 1
     5    2    7 1
     6    2    3 1
     7    2   37 1
     8    3    4 1
     9    3   38 1
    10    3   39 1
    11    4    5 am
    12    4    8 2
    13    5    6 2
    14    5    7 1
    15    8   32 1
    16    8    9 1
    17    9   10 2
    18    9   40 1
    19   10   11 1
    20   10   12 1
    21   11   55 1
    22   12   13 2
    23   12   31 1
    24   13   14 1
    25   14   23 ar
    26   14   15 ar
    27   15   20 ar
    28   15   16 ar
    29   16   17 ar
    30   16   41 1
    31   17   18 ar
    32   17   29 1
    33   18   19 ar
    34   18   24 1
    35   19   20 ar
    36   19   42 1
    37   20   21 ar
    38   21   22 ar
    39   22   23 ar
    40   22   43 1
    41   24   25 1
    42   25   26 1
    43   25   44 1
    44   25   45 1
    45   26   27 1
    46   26   46 1
    47   26   47 1
    48   27   28 1
    49   28   48 1
    50   28   49 1
    51   28   50 1
    52   29   30 1
    53   30   51 1
    54   30   52 1
    55   30   53 1
    56   31   32 2
    57   31   54 1
    58   32   33 1
@<TRIPOS>MOLECULE
CHEMBL200874__3
   56    59     0     0     0
SMALL
USER_CHARGES

@<TRIPOS>ATOM
      1 C1          1.1571   -7.3165   -3.8973 C.3       1 <0>        -0.1828
      2 C2          2.1060   -7.2808   -5.0970 C.3       1 <0>         0.0614
      3 C3          2.6453   -5.8500   -5.3331 C.3       1 <0>         0.0406
      4 N1          3.9208   -5.8702   -4.5904 N.am      1 <0>        -0.5020
      5 C4          4.2193   -7.1458   -4.3211 C.2       1 <0>         0.6398
      6 O1          5.2037   -7.4876   -3.6921 O.2       1 <0>        -0.4325
      7 O2          3.3159   -8.0127   -4.8187 O.3       1 <0>        -0.2781
      8 C5          4.6458   -4.8067   -4.2486 C.2       1 <0>         0.4486
      9 C6          5.7756   -4.9692   -3.4201 C.2       1 <0>        -0.3270
     10 C7          6.5285   -3.8991   -3.0601 C.2       1 <0>         0.3188
     11 O3          7.6113   -4.0681   -2.2645 O.3       1 <0>        -0.4016
     12 C8          6.1653   -2.5514   -3.5376 C.2       1 <0>         0.2013
     13 N2          6.8924   -1.5026   -3.1930 N.2       1 <0>        -0.2781
     14 C9          8.0252   -1.6720   -2.4861 C.ar      1 <0>         0.3181
     15 C10         9.3291   -1.7669   -3.1479 C.ar      1 <0>        -0.1162
     16 C11         9.4685   -1.6867   -4.5331 C.ar      1 <0>        -0.1796
     17 C12        10.7250   -1.7824   -5.0934 C.ar      1 <0>         0.1470
     18 C13        11.8578   -1.9591   -4.2816 C.ar      1 <0>         0.1690
     19 C14        11.7418   -2.0403   -2.9236 C.ar      1 <0>        -0.1748
     20 C15        10.4755   -1.9455   -2.3271 C.ar      1 <0>         0.1877
     21 N3         10.3080   -2.0175   -1.0028 N.ar      1 <0>        -0.4872
     22 C16         9.1154   -1.9264   -0.4613 C.ar      1 <0>         0.3120
     23 N4          8.0059   -1.7549   -1.1520 N.ar      1 <0>        -0.4972
     24 O4         13.0855   -2.0508   -4.8557 O.3       1 <0>        -0.2821
     25 C17        14.1998   -2.2299   -3.9792 C.3       1 <0>         0.0527
     26 C18        15.4876   -2.3110   -4.8014 C.3       1 <0>         0.0611
     27 O5         15.7163   -1.0599   -5.4529 O.3       1 <0>        -0.3863
     28 C19        16.9009   -1.0285   -6.2515 C.3       1 <0>         0.0301
     29 O6         10.8685   -1.7057   -6.4419 O.3       1 <0>        -0.2872
     30 C20         9.6781   -1.5262   -7.2118 C.3       1 <0>         0.0206
     31 C21         4.9917   -2.3871   -4.3975 C.2       1 <0>        -0.0903
     32 C22         4.2636   -3.4760   -4.7438 C.2       1 <0>         0.1066
     33 O7          3.1770   -3.3376   -5.5441 O.3       1 <0>        -0.4540
     34 H1          1.6561   -6.8910   -3.0266 H         1 <0>         0.0647
     35 H2          0.2631   -6.7354   -4.1237 H         1 <0>         0.1013
     36 H3          0.8761   -8.3484   -3.6868 H         1 <0>         0.0943
     37 H4          1.6150   -7.6652   -5.9910 H         1 <0>         0.1619
     38 H5          2.8171   -5.6703   -6.3944 H         1 <0>         0.1419
     39 H6          1.9661   -5.1057   -4.9174 H         1 <0>         0.1489
     40 H7          6.0439   -5.9545   -3.0686 H         1 <0>         0.2105
     41 H8          8.6005   -1.5513   -5.1613 H         1 <0>         0.1457
     42 H9         12.6210   -2.1769   -2.3113 H         1 <0>         0.1639
     43 H10         9.0394   -1.9917    0.6140 H         1 <0>         0.2084
     44 H11        14.2603   -1.3864   -3.2914 H         1 <0>         0.0822
     45 H12        14.0718   -3.1522   -3.4126 H         1 <0>         0.0873
     46 H13        16.3260   -2.5360   -4.1421 H         1 <0>         0.0792
     47 H14        15.3921   -3.0981   -5.5494 H         1 <0>         0.0648
     48 H15        17.0029   -0.0457   -6.7117 H         1 <0>         0.0905
     49 H16        17.7686   -1.2270   -5.6224 H         1 <0>         0.0449
     50 H17        16.8348   -1.7890   -7.0296 H         1 <0>         0.0447
     51 H18         9.0023   -2.3632   -7.0364 H         1 <0>         0.0549
     52 H19         9.1906   -0.5973   -6.9158 H         1 <0>         0.0629
     53 H20         9.9335   -1.4811   -8.2705 H         1 <0>         0.1133
     54 H21         4.7116   -1.4076   -4.7560 H         1 <0>         0.2013
     55 H22         7.7683   -4.9860   -2.0038 H         1 <0>         0.4399
     56 H23         3.0046   -2.4267   -5.8192 H         1 <0>         0.4341
@<TRIPOS>BOND
     1    1    2 1
     2    1   34 1
     3    1   35 1
     4    1   36 1
     5    2    7 1
     6    2    3 1
     7    2   37 1
     8    3    4 1
     9    3   38 1
    10    3   39 1
    11    4    5 am
    12    4    8 2
    13    5    6 2
    14    5    7 1
    15    8   32 1
    16    8    9 1
    17    9   10 2
    18    9   40 1
    19   10   11 1
    20   10   12 1
    21   11   55 1
    22   12   13 2
    23   12   31 1
    24   13   14 1
    25   14   23 ar
    26   14   15 ar
    27   15   20 ar
    28   15   16 ar
    29   16   17 ar
    30   16   41 1
    31   17   18 ar
    32   17   29 1
    33   18   19 ar
    34   18   24 1
    35   19   20 ar
    36   19   42 1
    37   20   21 ar
    38   21   22 ar
    39   22   23 ar
    40   22   43 1
    41   24   25 1
    42   25   26 1
    43   25   44 1
    44   25   45 1
    45   26   27 1
    46   26   46 1
    47   26   47 1
    48   27   28 1
    49   28   48 1
    50   28   49 1
    51   28   50 1
    52   29   30 1
    53   30   51 1
    54   30   52 1
    55   30   53 1
    56   31   32 2
    57   31   54 1
    58   32   33 1
    59   33   56 1
@<TRIPOS>MOLECULE
CHEMBL223999
   65    70     0     0     0
SMALL
USER_CHARGES

@<TRIPOS>ATOM
      1 C1         -0.0178    1.4648    0.0101 C.3       1 <0>        -0.0474
      2 N1          0.0021   -0.0041    0.0020 N.4       1 <0>        -0.3847
      3 C2         -1.3756   -0.5106    0.0035 C.3       1 <0>        -0.0069
      4 C3         -1.3615   -2.0381   -0.0867 C.3       1 <0>        -0.1438
      5 C4         -0.6051   -2.6081    1.1167 C.3       1 <0>        -0.0950
      6 C5          0.8066   -2.0155    1.1472 C.3       1 <0>        -0.1477
      7 C6          0.7122   -0.4888    1.1916 C.3       1 <0>        -0.0070
      8 C7         -0.5183   -4.1305    0.9921 C.3       1 <0>        -0.0743
      9 C8          0.1167   -4.7008    2.2341 C.ar      1 <0>        -0.0803
     10 C9          1.4904   -4.8537    2.2995 C.ar      1 <0>        -0.1192
     11 C10         2.0797   -5.3747    3.4322 C.ar      1 <0>        -0.0906
     12 C11         1.2872   -5.7500    4.5201 C.ar      1 <0>        -0.0305
     13 C12        -0.0958   -5.5911    4.4434 C.ar      1 <0>        -0.0642
     14 C13        -0.6746   -5.0653    3.3096 C.ar      1 <0>        -0.0940
     15 C14        -0.6685   -6.0776    5.7521 C.3       1 <0>        -0.0113
     16 C15         0.5142   -6.5260    6.5760 C.2       1 <0>        -0.2201
     17 C16         1.6404   -6.3251    5.8368 C.2       1 <0>         0.0946
     18 N2          2.7019   -6.7353    6.5940 N.pl3     1 <0>        -0.4536
     19 H1          3.6346   -6.7115    6.3286 H         1 <0>         0.4421
     20 N3          2.2065   -7.1952    7.8200 N.2       1 <0>        -0.2519
     21 C17         0.8960   -7.0706    7.8123 C.2       1 <0>         0.1616
     22 C18        -0.0203   -7.4421    8.9202 C.2       1 <0>        -0.0522
     23 C19         0.2521   -8.5367    9.7256 C.2       1 <0>        -0.1063
     24 C20        -0.6198   -8.8426   10.7357 C.2       1 <0>        -0.0547
     25 S1         -1.8581   -7.5690   10.5617 S.3       1 <0>         0.1226
     26 C21        -1.1475   -6.7069    9.1697 C.2       1 <0>        -0.1482
     27 C22        -0.5550   -9.9103   11.6877 C.1       1 <0>        -0.0722
     28 C23        -0.5019  -10.7857   12.4682 C.1       1 <0>        -0.1256
     29 C24        -0.4352  -11.8833   13.4468 C.3       1 <0>         0.1774
     30 O1         -1.5659  -11.8141   14.3179 O.3       1 <0>        -0.3104
     31 C25        -1.6572  -12.7626   15.2869 C.ar      1 <0>         0.1265
     32 C26        -0.6757  -13.7364   15.4006 C.ar      1 <0>        -0.2098
     33 C27        -0.7705  -14.6992   16.3868 C.ar      1 <0>        -0.0791
     34 C28        -1.8428  -14.6931   17.2597 C.ar      1 <0>        -0.1548
     35 C29        -2.8225  -13.7238   17.1482 C.ar      1 <0>        -0.0791
     36 C30        -2.7291  -12.7552   16.1676 C.ar      1 <0>        -0.1487
     37 H2          1.0047    1.8421    0.0024 H         1 <0>         0.1234
     38 H3         -0.5450    1.8259   -0.8730 H         1 <0>         0.1238
     39 H4         -0.5280    1.8163    0.9069 H         1 <0>         0.1213
     40 H5         -1.8732   -0.2060    0.9241 H         1 <0>         0.1282
     41 H6         -1.9135   -0.1015   -0.8518 H         1 <0>         0.1309
     42 H7         -2.3852   -2.4123   -0.0837 H         1 <0>         0.1139
     43 H8         -0.8642   -2.3438   -1.0072 H         1 <0>         0.0898
     44 H9         -1.1305   -2.3457    2.0350 H         1 <0>         0.0922
     45 H10         1.3327   -2.3735    2.0321 H         1 <0>         0.1152
     46 H11         1.3489   -2.3207    0.2523 H         1 <0>         0.0891
     47 H12         1.7157   -0.0637    1.2136 H         1 <0>         0.1299
     48 H13         0.1701   -0.1847    2.0870 H         1 <0>         0.1279
     49 H14        -1.5203   -4.5431    0.8742 H         1 <0>         0.0865
     50 H15         0.0861   -4.3901    0.1230 H         1 <0>         0.0812
     51 H16         2.1039   -4.5640    1.4592 H         1 <0>         0.1266
     52 H17         3.1522   -5.4928    3.4782 H         1 <0>         0.1251
     53 H18        -1.7462   -4.9410    3.2583 H         1 <0>         0.1307
     54 H19        -1.1934   -5.2669    6.2575 H         1 <0>         0.1006
     55 H20        -1.3451   -6.9143    5.5787 H         1 <0>         0.1042
     56 H21         1.1346   -9.1367    9.5594 H         1 <0>         0.1441
     57 H22        -1.5136   -5.8305    8.6555 H         1 <0>         0.1943
     58 H23        -0.4388  -12.8386   12.9221 H         1 <0>         0.0952
     59 H24         0.4801  -11.7935   14.0318 H         1 <0>         0.0954
     60 H25         0.1617  -13.7420   14.7186 H         1 <0>         0.1291
     61 H26        -0.0067  -15.4575   16.4757 H         1 <0>         0.1271
     62 H27        -1.9153  -15.4468   18.0297 H         1 <0>         0.1260
     63 H28        -3.6592  -13.7214   17.8310 H         1 <0>         0.1316
     64 H29        -3.4923  -11.9957   16.0837 H         1 <0>         0.1317
     65 H30         0.4767   -0.3284   -0.8272 H         1 <0>         0.4242
@<TRIPOS>BOND
     1    1    2 1
     2    1   37 1
     3    1   38 1
     4    1   39 1
     5    2    7 1
     6    2    3 1
     7    2   65 1
     8    3    4 1
     9    3   40 1
    10    3   41 1
    11    4    5 1
    12    4   42 1
    13    4   43 1
    14    5    6 1
    15    5    8 1
    16    5   44 1
    17    6    7 1
    18    6   45 1
    19    6   46 1
    20    7   47 1
    21    7   48 1
    22    8    9 1
    23    8   49 1
    24    8   50 1
    25    9   14 ar
    26    9   10 ar
    27   10   11 ar
    28   10   51 1
    29   11   12 ar
    30   11   52 1
    31   12   17 1
    32   12   13 ar
    33   13   14 ar
    34   13   15 1
    35   14   53 1
    36   15   16 1
    37   15   54 1
    38   15   55 1
    39   16   21 1
    40   16   17 2
    41   17   18 1
    42   18   19 1
    43   18   20 1
    44   20   21 2
    45   21   22 1
    46   22   26 2
    47   22   23 1
    48   23   24 2
    49   23   56 1
    50   24   25 1
    51   24   27 1
    52   25   26 1
    53   26   57 1
    54   27   28 3
    55   28   29 1
    56   29   30 1
    57   29   58 1
    58   29   59 1
    59   30   31 1
    60   31   36 ar
    61   31   32 ar
    62   32   33 ar
    63   32   60 1
    64   33   34 ar
    65   33   61 1
    66   34   35 ar
    67   34   62 1
    68   35   36 ar
    69   35   63 1
    70   36   64 1
@<TRIPOS>MOLECULE
CHEMBL223999__1
   65    70     0     0     0
SMALL
USER_CHARGES

@<TRIPOS>ATOM
      1 C1         -0.0178    1.4648    0.0101 C.3       1 <0>        -0.0474
      2 N1          0.0021   -0.0041    0.0020 N.4       1 <0>        -0.3846
      3 C2         -1.3756   -0.5106    0.0035 C.3       1 <0>        -0.0068
      4 C3         -1.3615   -2.0381   -0.0867 C.3       1 <0>        -0.1437
      5 C4         -0.6051   -2.6081    1.1167 C.3       1 <0>        -0.0951
      6 C5          0.8066   -2.0155    1.1472 C.3       1 <0>        -0.1481
      7 C6          0.7122   -0.4888    1.1916 C.3       1 <0>        -0.0071
      8 C7         -0.5183   -4.1305    0.9921 C.3       1 <0>        -0.0735
      9 C8          0.1167   -4.7008    2.2341 C.ar      1 <0>        -0.0813
     10 C9          1.4901   -4.8537    2.2996 C.ar      1 <0>        -0.1216
     11 C10         2.0775   -5.3746    3.4336 C.ar      1 <0>        -0.0814
     12 C11         1.2851   -5.7494    4.5202 C.ar      1 <0>        -0.0113
     13 C12        -0.0955   -5.5919    4.4453 C.ar      1 <0>        -0.0659
     14 C13        -0.6740   -5.0651    3.3091 C.ar      1 <0>        -0.0978
     15 C14        -0.6853   -6.0750    5.7477 C.3       1 <0>        -0.0006
     16 C15         0.4792   -6.5300    6.5919 C.2       1 <0>        -0.2353
     17 C16         1.6477   -6.3268    5.8394 C.2       1 <0>         0.0871
     18 N2          2.6749   -6.7219    6.5677 N.2       1 <0>        -0.2503
     19 H1          2.7332   -7.5350    8.5257 H         1 <0>         0.4477
     20 N3          2.1948   -7.1857    7.7984 N.pl3     1 <0>        -0.4572
     21 C17         0.8371   -7.0594    7.7946 C.2       1 <0>         0.1738
     22 C18        -0.0799   -7.4296    8.8962 C.2       1 <0>        -0.0787
     23 C19         0.2086   -7.0770   10.2069 C.2       1 <0>        -0.1166
     24 C20        -0.6678   -7.4399   11.1929 C.2       1 <0>        -0.0490
     25 S1         -1.9346   -8.2985   10.2746 S.3       1 <0>         0.1292
     26 C21        -1.2347   -8.1230    8.6422 C.2       1 <0>        -0.1353
     27 C22        -0.5885   -7.1943   12.6015 C.1       1 <0>        -0.0792
     28 C23        -0.5235   -6.9930   13.7563 C.1       1 <0>        -0.1189
     29 C24        -0.4419   -6.7405   15.2042 C.3       1 <0>         0.1756
     30 O1         -1.5846   -7.3043   15.8511 O.3       1 <0>        -0.3109
     31 C25        -1.6645   -7.1586   17.1999 C.ar      1 <0>         0.1255
     32 C26        -0.6665   -6.4818   17.8859 C.ar      1 <0>        -0.2097
     33 C27        -0.7503   -6.3345   19.2569 C.ar      1 <0>        -0.0790
     34 C28        -1.8273   -6.8614   19.9455 C.ar      1 <0>        -0.1540
     35 C29        -2.8230   -7.5368   19.2641 C.ar      1 <0>        -0.0789
     36 C30        -2.7470   -7.6814   17.8923 C.ar      1 <0>        -0.1486
     37 H2          1.0047    1.8421    0.0024 H         1 <0>         0.1234
     38 H3         -0.5450    1.8259   -0.8730 H         1 <0>         0.1235
     39 H4         -0.5280    1.8163    0.9069 H         1 <0>         0.1211
     40 H5         -1.8732   -0.2060    0.9241 H         1 <0>         0.1279
     41 H6         -1.9135   -0.1015   -0.8518 H         1 <0>         0.1304
     42 H7         -2.3852   -2.4123   -0.0837 H         1 <0>         0.1134
     43 H8         -0.8642   -2.3438   -1.0072 H         1 <0>         0.0897
     44 H9         -1.1305   -2.3457    2.0350 H         1 <0>         0.0919
     45 H10         1.3327   -2.3735    2.0321 H         1 <0>         0.1164
     46 H11         1.3489   -2.3207    0.2523 H         1 <0>         0.0893
     47 H12         1.7157   -0.0637    1.2136 H         1 <0>         0.1300
     48 H13         0.1701   -0.1847    2.0870 H         1 <0>         0.1277
     49 H14        -1.5203   -4.5431    0.8742 H         1 <0>         0.0855
     50 H15         0.0861   -4.3901    0.1230 H         1 <0>         0.0809
     51 H16         2.1044   -4.5646    1.4597 H         1 <0>         0.1262
     52 H17         3.1500   -5.4928    3.4809 H         1 <0>         0.1288
     53 H18        -1.7455   -4.9410    3.2572 H         1 <0>         0.1286
     54 H19        -1.2135   -5.2614    6.2448 H         1 <0>         0.0957
     55 H20        -1.3654   -6.9071    5.5656 H         1 <0>         0.0961
     56 H21         1.1075   -6.5273   10.4440 H         1 <0>         0.1410
     57 H22        -1.6212   -8.4744    7.6969 H         1 <0>         0.1980
     58 H23         0.4637   -7.1982   15.6023 H         1 <0>         0.0959
     59 H24        -0.4155   -5.6659   15.3847 H         1 <0>         0.0970
     60 H25         0.1753   -6.0706   17.3486 H         1 <0>         0.1291
     61 H26         0.0263   -5.8077   19.7915 H         1 <0>         0.1275
     62 H27        -1.8908   -6.7456   21.0174 H         1 <0>         0.1265
     63 H28        -3.6631   -7.9478   19.8042 H         1 <0>         0.1319
     64 H29        -3.5272   -8.2051   17.3600 H         1 <0>         0.1314
     65 H30         0.4767   -0.3284   -0.8272 H         1 <0>         0.4241
@<TRIPOS>BOND
     1    1    2 1
     2    1   37 1
     3    1   38 1
     4    1   39 1
     5    2    7 1
     6    2    3 1
     7    2   65 1
     8    3    4 1
     9    3   40 1
    10    3   41 1
    11    4    5 1
    12    4   42 1
    13    4   43 1
    14    5    6 1
    15    5    8 1
    16    5   44 1
    17    6    7 1
    18    6   45 1
    19    6   46 1
    20    7   47 1
    21    7   48 1
    22    8    9 1
    23    8   49 1
    24    8   50 1
    25    9   14 ar
    26    9   10 ar
    27   10   11 ar
    28   10   51 1
    29   11   12 ar
    30   11   52 1
    31   12   13 ar
    32   12   17 1
    33   13   14 ar
    34   13   15 1
    35   14   53 1
    36   15   54 1
    37   15   55 1
    38   15   16 1
    39   16   17 1
    40   16   21 2
    41   17   18 2
    42   18   20 1
    43   19   20 1
    44   20   21 1
    45   21   22 1
    46   22   26 2
    47   22   23 1
    48   23   24 2
    49   23   56 1
    50   24   25 1
    51   24   27 1
    52   25   26 1
    53   26   57 1
    54   27   28 3
    55   28   29 1
    56   29   30 1
    57   29   58 1
    58   29   59 1
    59   30   31 1
    60   31   36 ar
    61   31   32 ar
    62   32   33 ar
    63   32   60 1
    64   33   34 ar
    65   33   61 1
    66   34   35 ar
    67   34   62 1
    68   35   36 ar
    69   35   63 1
    70   36   64 1
@<TRIPOS>MOLECULE
CHEMBL199455
   59    62     0     0     0
SMALL
USER_CHARGES

@<TRIPOS>ATOM
      1 C1          0.0273    1.4769   -0.0177 C.3       1 <0>         0.0203
      2 O1          0.0401    0.0481   -0.0393 O.3       1 <0>        -0.2994
      3 C2          0.6496   -0.5791    1.0006 C.ar      1 <0>         0.1215
      4 C3          1.2075    0.1630    2.0045 C.ar      1 <0>        -0.1506
      5 C4          1.8340   -0.4839    3.0734 C.ar      1 <0>        -0.1528
      6 C5          1.8860   -1.9027    3.1083 C.ar      1 <0>         0.1896
      7 C6          1.3056   -2.6385    2.0654 C.ar      1 <0>        -0.1741
      8 C7          0.6943   -1.9818    1.0351 C.ar      1 <0>         0.1599
      9 O2          0.1274   -2.6954    0.0278 O.3       1 <0>        -0.2935
     10 C8          0.2047   -4.1194    0.1183 C.3       1 <0>         0.0553
     11 C9         -0.4832   -4.7457   -1.0964 C.3       1 <0>        -0.1483
     12 C10        -0.4004   -6.2704   -0.9995 C.3       1 <0>        -0.0020
     13 N1         -1.0608   -6.8717   -2.1658 N.4       1 <0>        -0.3935
     14 C11        -0.2759   -6.5977   -3.3967 C.3       1 <0>        -0.0093
     15 C12        -0.7428   -7.7093   -4.3697 C.3       1 <0>        -0.1457
     16 C13        -0.9134   -8.9329   -3.4404 C.3       1 <0>        -0.1456
     17 C14        -1.0958   -8.3440   -2.0293 C.3       1 <0>        -0.0082
     18 N2          2.4912   -2.4983    4.1429 N.ar      1 <0>        -0.5155
     19 C15         3.0259   -1.7834    5.1061 C.ar      1 <0>         0.3303
     20 N3          3.0043   -0.4629    5.1211 N.ar      1 <0>        -0.5121
     21 C16         2.4296    0.2334    4.1429 C.ar      1 <0>         0.3732
     22 N4          2.4138    1.5940    4.1680 N.2       1 <0>        -0.3935
     23 C17         1.3841    2.2247    4.6574 C.2       1 <0>         0.1745
     24 C18         1.2564    3.7380    4.5884 C.3       1 <0>        -0.1092
     25 C19        -0.1233    4.0397    4.0428 C.2       1 <0>         0.4021
     26 O3         -0.2811    4.9321    3.2436 O.2       1 <0>        -0.3802
     27 C20        -1.2734    3.2338    4.4956 C.2       1 <0>         0.1116
     28 C21        -1.0986    2.0280    5.0905 C.2       1 <0>        -0.2972
     29 C22         0.2559    1.5074    5.3138 C.2       1 <0>         0.3843
     30 O4          0.4475    0.5292    6.0114 O.2       1 <0>        -0.4008
     31 O5         -2.5277    3.7078    4.3140 O.3       1 <0>        -0.2800
     32 C23        -3.6041    2.8866    4.7712 C.3       1 <0>         0.0138
     33 H1          1.0516    1.8494   -0.0106 H         1 <0>         0.0632
     34 H2         -0.4886    1.8491   -0.9028 H         1 <0>         0.1123
     35 H3         -0.4910    1.8221    0.8770 H         1 <0>         0.0566
     36 H4          1.1647    1.2416    1.9714 H         1 <0>         0.1460
     37 H5          1.3379   -3.7179    2.0786 H         1 <0>         0.1557
     38 H6          1.2505   -4.4257    0.1417 H         1 <0>         0.0784
     39 H7         -0.2922   -4.4531    1.0293 H         1 <0>         0.0784
     40 H8         -1.5290   -4.4393   -1.1198 H         1 <0>         0.1002
     41 H9          0.0137   -4.4120   -2.0074 H         1 <0>         0.1000
     42 H10         0.6454   -6.5767   -0.9761 H         1 <0>         0.1342
     43 H11        -0.8973   -6.6040   -0.0885 H         1 <0>         0.1347
     44 H12        -0.5164   -5.6119   -3.7949 H         1 <0>         0.1365
     45 H13         0.7925   -6.6836   -3.1987 H         1 <0>         0.1348
     46 H14        -1.6922   -7.4420   -4.8337 H         1 <0>         0.0985
     47 H15         0.0168   -7.9031   -5.1271 H         1 <0>         0.1172
     48 H16        -1.7947   -9.5064   -3.7279 H         1 <0>         0.1057
     49 H17        -0.0238   -9.5618   -3.4758 H         1 <0>         0.1043
     50 H18        -0.2852   -8.6761   -1.3807 H         1 <0>         0.1316
     51 H19        -2.0557   -8.6560   -1.6179 H         1 <0>         0.1332
     52 H20         3.5057   -2.2995    5.9246 H         1 <0>         0.2059
     53 H21         1.3643    4.1664    5.5848 H         1 <0>         0.1569
     54 H22         2.0171    4.1457    3.9226 H         1 <0>         0.1469
     55 H23        -1.9568    1.4486    5.3971 H         1 <0>         0.1620
     56 H24        -3.5753    1.9281    4.2530 H         1 <0>         0.0660
     57 H25        -3.5056    2.7226    5.8443 H         1 <0>         0.0713
     58 H26        -4.5525    3.3828    4.5650 H         1 <0>         0.1164
     59 H27        -1.9974   -6.5088   -2.2614 H         1 <0>         0.4283
@<TRIPOS>BOND
     1    1    2 1
     2    1   33 1
     3    1   34 1
     4    1   35 1
     5    2    3 1
     6    3    8 ar
     7    3    4 ar
     8    4    5 ar
     9    4   36 1
    10    5   21 ar
    11    5    6 ar
    12    6    7 ar
    13    6   18 ar
    14    7    8 ar
    15    7   37 1
    16    8    9 1
    17    9   10 1
    18   10   11 1
    19   10   38 1
    20   10   39 1
    21   11   12 1
    22   11   40 1
    23   11   41 1
    24   12   13 1
    25   12   42 1
    26   12   43 1
    27   13   17 1
    28   13   14 1
    29   13   59 1
    30   14   15 1
    31   14   44 1
    32   14   45 1
    33   15   16 1
    34   15   46 1
    35   15   47 1
    36   16   17 1
    37   16   48 1
    38   16   49 1
    39   17   50 1
    40   17   51 1
    41   18   19 ar
    42   19   20 ar
    43   19   52 1
    44   20   21 ar
    45   21   22 1
    46   22   23 2
    47   23   29 1
    48   23   24 1
    49   24   25 1
    50   24   54 1
    51   24   53 1
    52   25   26 2
    53   25   27 1
    54   27   28 2
    55   27   31 1
    56   28   29 1
    57   28   55 1
    58   29   30 2
    59   31   32 1
    60   32   56 1
    61   32   57 1
    62   32   58 1
@<TRIPOS>MOLECULE
CHEMBL401153
   39    41     0     0     0
SMALL
USER_CHARGES

@<TRIPOS>ATOM
      1 C1          0.0668    1.2350    0.5434 C.ar      1 <0>        -0.0867
      2 C2          1.2530    1.9428    0.5548 C.ar      1 <0>        -0.1396
      3 C3          2.3832    1.4117   -0.0530 C.ar      1 <0>         0.1553
      4 C4          2.3172    0.1696   -0.6709 C.ar      1 <0>        -0.1129
      5 C5          1.1276   -0.5338   -0.6791 C.ar      1 <0>        -0.0169
      6 C6          0.0032   -0.0011   -0.0722 C.ar      1 <0>        -0.1237
      7 Cl1         1.0431   -2.0862   -1.4515 Cl        1 <0>        -0.0618
      8 N1          3.5852    2.1264   -0.0432 N.am      1 <0>        -0.6660
      9 C7          4.7586    1.4703    0.0530 C.2       1 <0>         0.5801
     10 O1          4.7773    0.2543    0.0498 O.2       1 <0>        -0.5271
     11 C8          6.0190    2.2265    0.1622 C.ar      1 <0>        -0.2752
     12 C9          6.0055    3.6213    0.2812 C.ar      1 <0>         0.0076
     13 C10         7.2155    4.2842    0.3806 C.ar      1 <0>        -0.2461
     14 C11         8.3938    3.5589    0.3598 C.ar      1 <0>         0.1915
     15 N2          8.3858    2.2453    0.2465 N.ar      1 <0>        -0.5468
     16 C12         7.2563    1.5602    0.1545 C.ar      1 <0>         0.4601
     17 N3          7.2947    0.1824    0.0441 N.pl3     1 <0>        -0.6960
     18 C13         8.5814   -0.5068   -0.0811 C.3       1 <0>         0.1646
     19 C14         8.3477   -1.9920   -0.1849 C.ar      1 <0>        -0.0647
     20 C15         8.2974   -2.7837    0.9522 C.ar      1 <0>        -0.1530
     21 C16         8.0813   -4.1421    0.8180 C.ar      1 <0>         0.0992
     22 N4          7.9244   -4.6857   -0.3732 N.ar      1 <0>        -0.4788
     23 C17         7.9661   -3.9637   -1.4759 C.ar      1 <0>         0.0993
     24 C18         8.1722   -2.5982   -1.4194 C.ar      1 <0>        -0.1530
     25 H1         -0.8110    1.6460    1.0198 H         1 <0>         0.1387
     26 H2          1.3014    2.9086    1.0357 H         1 <0>         0.1333
     27 H3          3.1943   -0.2459   -1.1447 H         1 <0>         0.1499
     28 H4         -0.9255   -0.5524   -0.0797 H         1 <0>         0.1362
     29 H5          3.5745    3.0943   -0.1058 H         1 <0>         0.4140
     30 H6          5.0732    4.1663    0.2948 H         1 <0>         0.1353
     31 H7          7.2404    5.3599    0.4733 H         1 <0>         0.1411
     32 H8          9.3374    4.0785    0.4375 H         1 <0>         0.1642
     33 H9          6.4697   -0.3278    0.0496 H         1 <0>         0.4271
     34 H10         9.0956   -0.1565   -0.9761 H         1 <0>         0.0795
     35 H11         9.1935   -0.2957    0.7957 H         1 <0>         0.0819
     36 H12         8.4259   -2.3445    1.9305 H         1 <0>         0.1364
     37 H13         8.0408   -4.7657    1.6988 H         1 <0>         0.1585
     38 H14         7.8337   -4.4444   -2.4339 H         1 <0>         0.1584
     39 H15         8.2004   -2.0116   -2.3257 H         1 <0>         0.1360
@<TRIPOS>BOND
     1    1    6 ar
     2    1    2 ar
     3    1   25 1
     4    2    3 ar
     5    2   26 1
     6    3    4 ar
     7    3    8 1
     8    4    5 ar
     9    4   27 1
    10    5    6 ar
    11    5    7 1
    12    6   28 1
    13    8    9 am
    14    8   29 1
    15    9   10 2
    16    9   11 1
    17   11   16 ar
    18   11   12 ar
    19   12   13 ar
    20   12   30 1
    21   13   14 ar
    22   13   31 1
    23   14   15 ar
    24   14   32 1
    25   15   16 ar
    26   16   17 1
    27   17   18 1
    28   17   33 1
    29   18   19 1
    30   18   34 1
    31   18   35 1
    32   19   24 ar
    33   19   20 ar
    34   20   21 ar
    35   20   36 1
    36   21   22 ar
    37   21   37 1
    38   22   23 ar
    39   23   24 ar
    40   23   38 1
    41   24   39 1
@<TRIPOS>MOLECULE
CHEMBL1085293
   62    68     0     0     0
SMALL
USER_CHARGES

@<TRIPOS>ATOM
      1 C1          1.4644    1.2016    0.3434 C.3       1 <0>         0.1037
      2 N1          1.2320   -0.2432    0.2729 N.pl3     1 <0>        -0.3872
      3 C2          1.0617   -0.9635   -0.8592 C.2       1 <0>         0.1094
      4 C3          0.8546   -2.2446   -0.4949 C.2       1 <0>        -0.2411
      5 C4          0.9315   -2.3114    0.9259 C.2       1 <0>         0.0922
      6 N2          1.1539   -1.1179    1.3688 N.2       1 <0>        -0.2878
      7 C5          0.7804   -3.6233    1.6522 C.3       1 <0>        -0.0316
      8 C6         -0.1786   -4.5244    0.8778 C.3       1 <0>        -0.0862
      9 C7          0.1304   -4.5869   -0.5927 C.ar      1 <0>        -0.1181
     10 C8          0.6080   -3.4749   -1.2788 C.ar      1 <0>         0.1275
     11 C9          0.8548   -3.5276   -2.6617 C.ar      1 <0>        -0.1947
     12 C10         0.6447   -4.7249   -3.3455 C.ar      1 <0>        -0.0171
     13 C11         0.1926   -5.8463   -2.6676 C.ar      1 <0>        -0.0939
     14 C12        -0.0686   -5.7806   -1.2829 C.ar      1 <0>         0.1838
     15 N3         -0.5053   -7.0231   -0.8568 N.pl3     1 <0>        -0.4941
     16 C13        -0.5437   -7.8992   -1.9112 C.ar      1 <0>         0.1454
     17 C14        -0.1175   -7.2194   -3.0742 C.ar      1 <0>        -0.0969
     18 C15        -0.0541   -7.8582   -4.3113 C.ar      1 <0>        -0.0488
     19 C16        -0.4280   -9.1923   -4.3453 C.ar      1 <0>        -0.1103
     20 C17        -0.8448   -9.8607   -3.2086 C.ar      1 <0>        -0.0567
     21 C18        -0.9143   -9.2413   -1.9712 C.ar      1 <0>        -0.1397
     22 C19        -0.3797   -9.9343   -5.6561 C.3       1 <0>         0.1361
     23 C20        -1.7628   -9.9034   -6.3115 C.3       1 <0>        -0.1452
     24 C21        -1.7206  -10.7101   -7.6130 C.3       1 <0>        -0.1240
     25 C22        -1.2564  -12.1364   -7.3019 C.3       1 <0>        -0.1584
     26 C23         0.1072  -12.0810   -6.6082 C.3       1 <0>         0.0612
     27 O1          0.0050  -11.2905   -5.4221 O.3       1 <0>        -0.3750
     28 C24        -0.8733   -7.3546    0.5220 C.3       1 <0>         0.1029
     29 C25         0.3843   -7.7257    1.3104 C.3       1 <0>         0.0538
     30 O2          0.0253   -8.0490    2.6552 O.3       1 <0>        -0.5673
     31 C26         0.9997   -4.4618   -4.7876 C.3       1 <0>         0.1392
     32 N4          1.4144   -3.0558   -4.8559 N.am      1 <0>        -0.7218
     33 C27         1.3284   -2.5222   -3.6255 C.2       1 <0>         0.5759
     34 O3          1.6033   -1.3705   -3.3479 O.2       1 <0>        -0.5330
     35 H1          2.5356    1.3995    0.3056 H         1 <0>         0.0749
     36 H2          0.9746    1.6899   -0.4990 H         1 <0>         0.0893
     37 H3          1.0558    1.5902    1.2763 H         1 <0>         0.0891
     38 H4          1.0864   -0.5821   -1.8693 H         1 <0>         0.2151
     39 H5          1.7528   -4.1095    1.7305 H         1 <0>         0.0866
     40 H6          0.3828   -3.4423    2.6508 H         1 <0>         0.0909
     41 H7         -0.1240   -5.5317    1.2908 H         1 <0>         0.0928
     42 H8         -1.1939   -4.1494    1.0072 H         1 <0>         0.0807
     43 H9          0.2712   -7.3388   -5.2005 H         1 <0>         0.1334
     44 H10        -1.1260  -10.9004   -3.2882 H         1 <0>         0.1316
     45 H11        -1.2409   -9.7755   -1.0913 H         1 <0>         0.1332
     46 H12         0.3462   -9.4593   -6.3160 H         1 <0>         0.0657
     47 H13        -2.4964  -10.3418   -5.6349 H         1 <0>         0.0736
     48 H14        -2.0389   -8.8721   -6.5311 H         1 <0>         0.0749
     49 H15        -2.7159  -10.7392   -8.0564 H         1 <0>         0.0690
     50 H16        -1.0235  -10.2434   -8.3088 H         1 <0>         0.0639
     51 H17        -1.9798  -12.6198   -6.6453 H         1 <0>         0.0720
     52 H18        -1.1704  -12.7019   -8.2297 H         1 <0>         0.0736
     53 H19         0.4229  -13.0908   -6.3460 H         1 <0>         0.0952
     54 H20         0.8393  -11.6341   -7.2808 H         1 <0>         0.0506
     55 H21        -1.3528   -6.4932    0.9871 H         1 <0>         0.1070
     56 H22        -1.5637   -8.1981    0.5210 H         1 <0>         0.1013
     57 H23         0.8637   -8.5871    0.8452 H         1 <0>         0.0556
     58 H24         1.0746   -6.8822    1.3114 H         1 <0>         0.0583
     59 H25         0.7751   -8.2946    3.2143 H         1 <0>         0.3902
     60 H26         1.8199   -5.1099   -5.0961 H         1 <0>         0.1009
     61 H27         0.1304   -4.6276   -5.4240 H         1 <0>         0.1013
     62 H28         1.7023   -2.5891   -5.6560 H         1 <0>         0.4268
@<TRIPOS>BOND
     1    1    2 1
     2    1   35 1
     3    1   36 1
     4    1   37 1
     5    2    6 1
     6    2    3 1
     7    3    4 2
     8    3   38 1
     9    4   10 1
    10    4    5 1
    11    5    6 2
    12    5    7 1
    13    7    8 1
    14    7   39 1
    15    7   40 1
    16    8    9 1
    17    8   41 1
    18    8   42 1
    19    9   14 ar
    20    9   10 ar
    21   10   11 ar
    22   11   33 1
    23   11   12 ar
    24   12   13 ar
    25   12   31 1
    26   13   17 1
    27   13   14 ar
    28   14   15 1
    29   15   16 1
    30   15   28 1
    31   16   21 ar
    32   16   17 ar
    33   17   18 ar
    34   18   19 ar
    35   18   43 1
    36   19   20 ar
    37   19   22 1
    38   20   21 ar
    39   20   44 1
    40   21   45 1
    41   22   27 1
    42   22   23 1
    43   22   46 1
    44   23   24 1
    45   23   47 1
    46   23   48 1
    47   24   25 1
    48   24   49 1
    49   24   50 1
    50   25   26 1
    51   25   51 1
    52   25   52 1
    53   26   27 1
    54   26   53 1
    55   26   54 1
    56   28   29 1
    57   28   55 1
    58   28   56 1
    59   29   30 1
    60   29   57 1
    61   29   58 1
    62   30   59 1
    63   31   32 1
    64   31   60 1
    65   31   61 1
    66   32   33 am
    67   32   62 1
    68   33   34 2
@<TRIPOS>MOLECULE
CHEMBL1085293__1
   62    68     0     0     0
SMALL
USER_CHARGES

@<TRIPOS>ATOM
      1 C1          1.4644    1.2016    0.3434 C.3       1 <0>         0.1037
      2 N1          1.2320   -0.2432    0.2729 N.pl3     1 <0>        -0.3871
      3 C2          1.0617   -0.9635   -0.8592 C.2       1 <0>         0.1094
      4 C3          0.8546   -2.2446   -0.4949 C.2       1 <0>        -0.2411
      5 C4          0.9315   -2.3114    0.9259 C.2       1 <0>         0.0922
      6 N2          1.1539   -1.1179    1.3688 N.2       1 <0>        -0.2878
      7 C5          0.7804   -3.6233    1.6522 C.3       1 <0>        -0.0315
      8 C6         -0.1786   -4.5244    0.8778 C.3       1 <0>        -0.0863
      9 C7          0.1304   -4.5869   -0.5927 C.ar      1 <0>        -0.1180
     10 C8          0.6080   -3.4749   -1.2788 C.ar      1 <0>         0.1275
     11 C9          0.8548   -3.5276   -2.6617 C.ar      1 <0>        -0.1946
     12 C10         0.6447   -4.7249   -3.3455 C.ar      1 <0>        -0.0171
     13 C11         0.1926   -5.8463   -2.6676 C.ar      1 <0>        -0.0938
     14 C12        -0.0686   -5.7806   -1.2829 C.ar      1 <0>         0.1837
     15 N3         -0.5053   -7.0231   -0.8568 N.pl3     1 <0>        -0.4940
     16 C13        -0.5437   -7.8992   -1.9112 C.ar      1 <0>         0.1459
     17 C14        -0.1175   -7.2194   -3.0742 C.ar      1 <0>        -0.0972
     18 C15        -0.0541   -7.8582   -4.3113 C.ar      1 <0>        -0.0478
     19 C16        -0.4280   -9.1923   -4.3453 C.ar      1 <0>        -0.1104
     20 C17        -0.8448   -9.8607   -3.2086 C.ar      1 <0>        -0.0562
     21 C18        -0.9143   -9.2413   -1.9712 C.ar      1 <0>        -0.1399
     22 C19        -0.3797   -9.9343   -5.6561 C.3       1 <0>         0.1359
     23 C20         0.8967  -10.7773   -5.7187 C.3       1 <0>        -0.1453
     24 C21         0.9092  -11.5743   -7.0268 C.3       1 <0>        -0.1240
     25 C22        -0.3580  -12.4316   -7.1016 C.3       1 <0>        -0.1583
     26 C23        -1.5859  -11.5247   -6.9856 C.3       1 <0>         0.0610
     27 O1         -1.5196  -10.7896   -5.7619 O.3       1 <0>        -0.3745
     28 C24        -0.8733   -7.3546    0.5220 C.3       1 <0>         0.1027
     29 C25         0.3843   -7.7257    1.3104 C.3       1 <0>         0.0541
     30 O2          0.0253   -8.0490    2.6552 O.3       1 <0>        -0.5672
     31 C26         0.9997   -4.4618   -4.7876 C.3       1 <0>         0.1392
     32 N4          1.4144   -3.0558   -4.8559 N.am      1 <0>        -0.7217
     33 C27         1.3284   -2.5222   -3.6255 C.2       1 <0>         0.5759
     34 O3          1.6033   -1.3705   -3.3479 O.2       1 <0>        -0.5330
     35 H1          2.5356    1.3995    0.3056 H         1 <0>         0.0749
     36 H2          0.9746    1.6899   -0.4990 H         1 <0>         0.0894
     37 H3          1.0558    1.5902    1.2763 H         1 <0>         0.0891
     38 H4          1.0864   -0.5821   -1.8693 H         1 <0>         0.2152
     39 H5          1.7528   -4.1095    1.7305 H         1 <0>         0.0865
     40 H6          0.3828   -3.4423    2.6508 H         1 <0>         0.0909
     41 H7         -0.1240   -5.5317    1.2908 H         1 <0>         0.0928
     42 H8         -1.1939   -4.1494    1.0072 H         1 <0>         0.0808
     43 H9          0.2712   -7.3388   -5.2005 H         1 <0>         0.1335
     44 H10        -1.1260  -10.9004   -3.2882 H         1 <0>         0.1305
     45 H11        -1.2409   -9.7755   -1.0913 H         1 <0>         0.1333
     46 H12        -0.3841   -9.2193   -6.4788 H         1 <0>         0.0654
     47 H13         1.7676  -10.1229   -5.6826 H         1 <0>         0.0747
     48 H14         0.9211  -11.4647   -4.8732 H         1 <0>         0.0734
     49 H15         0.9349  -10.8869   -7.8723 H         1 <0>         0.0640
     50 H16         1.7877  -12.2190   -7.0526 H         1 <0>         0.0689
     51 H17        -0.3844  -12.9602   -8.0545 H         1 <0>         0.0736
     52 H18        -0.3589  -13.1524   -6.2840 H         1 <0>         0.0719
     53 H19        -1.6059  -10.8307   -7.8258 H         1 <0>         0.0506
     54 H20        -2.4898  -12.1337   -6.9952 H         1 <0>         0.0951
     55 H21        -1.3528   -6.4932    0.9871 H         1 <0>         0.1071
     56 H22        -1.5637   -8.1981    0.5210 H         1 <0>         0.1015
     57 H23         0.8637   -8.5871    0.8452 H         1 <0>         0.0552
     58 H24         1.0746   -6.8822    1.3114 H         1 <0>         0.0583
     59 H25         0.7751   -8.2946    3.2143 H         1 <0>         0.3901
     60 H26         1.8199   -5.1099   -5.0961 H         1 <0>         0.1008
     61 H27         0.1304   -4.6276   -5.4240 H         1 <0>         0.1015
     62 H28         1.7023   -2.5891   -5.6560 H         1 <0>         0.4269
@<TRIPOS>BOND
     1    1    2 1
     2    1   35 1
     3    1   36 1
     4    1   37 1
     5    2    6 1
     6    2    3 1
     7    3    4 2
     8    3   38 1
     9    4   10 1
    10    4    5 1
    11    5    6 2
    12    5    7 1
    13    7    8 1
    14    7   39 1
    15    7   40 1
    16    8    9 1
    17    8   41 1
    18    8   42 1
    19    9   14 ar
    20    9   10 ar
    21   10   11 ar
    22   11   33 1
    23   11   12 ar
    24   12   13 ar
    25   12   31 1
    26   13   17 1
    27   13   14 ar
    28   14   15 1
    29   15   16 1
    30   15   28 1
    31   16   21 ar
    32   16   17 ar
    33   17   18 ar
    34   18   19 ar
    35   18   43 1
    36   19   20 ar
    37   19   22 1
    38   20   21 ar
    39   20   44 1
    40   21   45 1
    41   22   27 1
    42   22   23 1
    43   22   46 1
    44   23   24 1
    45   23   47 1
    46   23   48 1
    47   24   25 1
    48   24   49 1
    49   24   50 1
    50   25   26 1
    51   25   51 1
    52   25   52 1
    53   26   27 1
    54   26   53 1
    55   26   54 1
    56   28   29 1
    57   28   55 1
    58   28   56 1
    59   29   30 1
    60   29   57 1
    61   29   58 1
    62   30   59 1
    63   31   32 1
    64   31   60 1
    65   31   61 1
    66   32   33 am
    67   32   62 1
    68   33   34 2
@<TRIPOS>MOLECULE
CHEMBL453578
   54    58     0     0     0
SMALL
USER_CHARGES

@<TRIPOS>ATOM
      1 C1         -1.1862    1.0262   -0.4160 C.3       1 <0>        -0.1156
      2 C2         -1.7127   -0.2499    0.1886 C.ar      1 <0>        -0.0661
      3 C3         -2.9524   -0.7329   -0.1888 C.ar      1 <0>        -0.1346
      4 C4         -3.4390   -1.9033    0.3635 C.ar      1 <0>        -0.0949
      5 C5         -2.6877   -2.5939    1.2945 C.ar      1 <0>        -0.1251
      6 C6         -1.4425   -2.1118    1.6751 C.ar      1 <0>         0.1634
      7 C7         -0.9543   -0.9386    1.1145 C.ar      1 <0>        -0.1472
      8 N1         -0.6789   -2.8091    2.6180 N.am      1 <0>        -0.6809
      9 C8         -0.7436   -4.1541    2.6759 C.2       1 <0>         0.7038
     10 O1         -1.3912   -4.7677    1.8497 O.2       1 <0>        -0.5492
     11 N2         -0.0904   -4.8188    3.6495 N.am      1 <0>        -0.6830
     12 C9         -0.0674   -6.2183    3.6473 C.ar      1 <0>         0.1708
     13 C10        -0.0564   -6.9098    2.4421 C.ar      1 <0>        -0.1149
     14 C11        -0.0338   -8.2886    2.4372 C.ar      1 <0>        -0.0770
     15 C12        -0.0219   -8.9887    3.6428 C.ar      1 <0>        -0.0425
     16 C13        -0.0329   -8.2924    4.8508 C.ar      1 <0>        -0.0916
     17 C14        -0.0498   -6.9135    4.8501 C.ar      1 <0>        -0.1415
     18 C15         0.0020  -10.4714    3.6405 C.2       1 <0>        -0.2538
     19 C16        -1.0810  -11.2021    3.1231 C.2       1 <0>         0.2387
     20 N3         -1.0520  -12.5158    3.1242 N.2       1 <0>        -0.5051
     21 C17        -0.0040  -13.1891    3.6116 C.2       1 <0>         0.3208
     22 C18         0.2648  -14.5591    3.7257 C.2       1 <0>        -0.2185
     23 C19         1.5266  -14.6858    4.3195 C.2       1 <0>         0.1240
     24 N4          2.0049  -13.4894    4.5560 N.2       1 <0>        -0.3248
     25 N5          1.0800  -12.5304    4.1288 N.pl3     1 <0>        -0.3429
     26 C20         1.0996  -11.1616    4.1452 C.2       1 <0>         0.5028
     27 N6          2.1812  -10.4819    4.6555 N.pl3     1 <0>        -0.8235
     28 C21        -0.6207  -15.6669    3.2985 C.ar      1 <0>        -0.0363
     29 C22        -0.1252  -16.7082    2.5063 C.ar      1 <0>        -0.0722
     30 C23        -0.9932  -17.7196    2.1343 C.ar      1 <0>        -0.1701
     31 C24        -2.3106  -17.6695    2.5536 C.ar      1 <0>         0.0900
     32 N7         -2.7497  -16.6748    3.3003 N.ar      1 <0>        -0.4830
     33 C25        -1.9607  -15.6923    3.6841 C.ar      1 <0>         0.1198
     34 H1         -0.6231    0.7946   -1.3201 H         1 <0>         0.0723
     35 H2         -2.0208    1.6814   -0.6656 H         1 <0>         0.0691
     36 H3         -0.5339    1.5256    0.3004 H         1 <0>         0.0665
     37 H4         -3.5419   -0.1946   -0.9162 H         1 <0>         0.1240
     38 H5         -4.4076   -2.2778    0.0670 H         1 <0>         0.1271
     39 H6         -3.0686   -3.5077    1.7261 H         1 <0>         0.1357
     40 H7          0.0157   -0.5632    1.4055 H         1 <0>         0.1246
     41 H8         -0.1031   -2.3244    3.2299 H         1 <0>         0.4087
     42 H9          0.3638   -4.3274    4.3517 H         1 <0>         0.4096
     43 H10        -0.0660   -6.3670    1.5085 H         1 <0>         0.1402
     44 H11        -0.0256   -8.8256    1.5002 H         1 <0>         0.1304
     45 H12        -0.0241   -8.8324    5.7860 H         1 <0>         0.1277
     46 H13        -0.0536   -6.3736    5.7855 H         1 <0>         0.1297
     47 H14        -1.9395  -10.6826    2.7239 H         1 <0>         0.1799
     48 H15         2.0240  -15.6174    4.5457 H         1 <0>         0.2000
     49 H16         2.1836   -9.5119    4.6659 H         1 <0>         0.4249
     50 H17         2.9415  -10.9725    5.0051 H         1 <0>         0.4174
     51 H18         0.9082  -16.7220    2.1927 H         1 <0>         0.1323
     52 H19        -0.6459  -18.5393    1.5229 H         1 <0>         0.1346
     53 H20        -2.9905  -18.4572    2.2646 H         1 <0>         0.1538
     54 H21        -2.3560  -14.8973    4.2990 H         1 <0>         0.1518
@<TRIPOS>BOND
     1    1    2 1
     2    1   34 1
     3    1   35 1
     4    1   36 1
     5    2    7 ar
     6    2    3 ar
     7    3    4 ar
     8    3   37 1
     9    4    5 ar
    10    4   38 1
    11    5    6 ar
    12    5   39 1
    13    6    7 ar
    14    6    8 1
    15    7   40 1
    16    8    9 am
    17    8   41 1
    18    9   10 2
    19    9   11 am
    20   11   12 1
    21   11   42 1
    22   12   17 ar
    23   12   13 ar
    24   13   14 ar
    25   13   43 1
    26   14   15 ar
    27   14   44 1
    28   15   16 ar
    29   15   18 1
    30   16   17 ar
    31   16   45 1
    32   17   46 1
    33   18   26 2
    34   18   19 1
    35   19   20 2
    36   19   47 1
    37   20   21 1
    38   21   25 1
    39   21   22 2
    40   22   23 1
    41   22   28 1
    42   23   24 2
    43   23   48 1
    44   24   25 1
    45   25   26 1
    46   26   27 1
    47   27   49 1
    48   27   50 1
    49   28   33 ar
    50   28   29 ar
    51   29   30 ar
    52   29   51 1
    53   30   31 ar
    54   30   52 1
    55   31   32 ar
    56   31   53 1
    57   32   33 ar
    58   33   54 1
@<TRIPOS>MOLECULE
CHEMBL347537
   55    59     0     0     0
SMALL
USER_CHARGES

@<TRIPOS>ATOM
      1 C1          4.7101   -0.1453   -5.8900 C.ar      1 <0>        -0.1199
      2 C2          4.3644   -0.5147   -4.5918 C.ar      1 <0>        -0.0954
      3 C3          5.0045    0.0234   -3.5152 C.ar      1 <0>        -0.1164
      4 C4          6.0238    0.9607   -3.7170 C.ar      1 <0>        -0.0105
      5 C5          6.3779    1.3387   -5.0374 C.ar      1 <0>        -0.1122
      6 C6          5.6971    0.7638   -6.1226 C.ar      1 <0>        -0.0853
      7 C7          7.4038    2.2805   -5.2180 C.ar      1 <0>         0.1453
      8 N1          8.0195    2.7970   -4.1798 N.ar      1 <0>        -0.4829
      9 C8          7.7213    2.4729   -2.9315 C.ar      1 <0>         0.0983
     10 C9          6.7264    1.5553   -2.6402 C.ar      1 <0>        -0.0853
     11 C10         6.4052    1.2032   -1.2374 C.ar      1 <0>        -0.0229
     12 C11         5.0819    1.2252   -0.7960 C.ar      1 <0>        -0.1217
     13 C12         4.7847    0.8969    0.5112 C.ar      1 <0>        -0.0954
     14 C13         5.7948    0.5451    1.3868 C.ar      1 <0>        -0.1408
     15 C14         7.1158    0.5198    0.9562 C.ar      1 <0>         0.1514
     16 C15         7.4231    0.8435   -0.3567 C.ar      1 <0>        -0.1039
     17 N2          8.1348    0.1636    1.8457 N.am      1 <0>        -0.6690
     18 C16         9.3544    0.7261    1.7334 C.2       1 <0>         0.5756
     19 O1          9.5435    1.6110    0.9208 O.2       1 <0>        -0.5312
     20 C17        10.4592    0.2688    2.5954 C.ar      1 <0>        -0.2337
     21 C18        10.2813   -0.8270    3.4443 C.ar      1 <0>        -0.0333
     22 C19        11.3178   -1.2497    4.2471 C.ar      1 <0>        -0.1896
     23 C20        12.5386   -0.5938    4.2182 C.ar      1 <0>        -0.0345
     24 C21        12.7301    0.4895    3.3857 C.ar      1 <0>        -0.2116
     25 C22        11.6982    0.9275    2.5646 C.ar      1 <0>         0.2827
     26 N3         11.8902    2.0144    1.7217 N.pl3     1 <0>        -0.7210
     27 C23        13.1325    2.7874    1.7946 C.3       1 <0>         0.1559
     28 C24        13.0896    3.9037    0.7831 C.ar      1 <0>        -0.0628
     29 C25        13.5581    3.7104   -0.5075 C.ar      1 <0>        -0.1533
     30 C26        13.5028    4.7575   -1.4079 C.ar      1 <0>         0.1009
     31 N4         13.0123    5.9285   -1.0513 N.ar      1 <0>        -0.4775
     32 C27        12.5581    6.1482    0.1670 C.ar      1 <0>         0.0998
     33 C28        12.5755    5.1467    1.1192 C.ar      1 <0>        -0.1533
     34 H1          4.1901   -0.5904   -6.7254 H         1 <0>         0.1285
     35 H2          3.5775   -1.2379   -4.4362 H         1 <0>         0.1282
     36 H3          4.7267   -0.2711   -2.5140 H         1 <0>         0.1353
     37 H4          5.9545    1.0404   -7.1344 H         1 <0>         0.1351
     38 H5          7.6879    2.5812   -6.2156 H         1 <0>         0.1646
     39 H6          8.2668    2.9345   -2.1218 H         1 <0>         0.1558
     40 H7          4.2900    1.4996   -1.4771 H         1 <0>         0.1269
     41 H8          3.7598    0.9153    0.8511 H         1 <0>         0.1316
     42 H9          5.5567    0.2894    2.4087 H         1 <0>         0.1283
     43 H10         8.4487    0.8205   -0.6946 H         1 <0>         0.1373
     44 H11         7.9637   -0.4882    2.5434 H         1 <0>         0.4124
     45 H12         9.3322   -1.3415    3.4712 H         1 <0>         0.1232
     46 H13        11.1785   -2.0965    4.9028 H         1 <0>         0.1268
     47 H14        13.3449   -0.9327    4.8517 H         1 <0>         0.1280
     48 H15        13.6844    0.9951    3.3691 H         1 <0>         0.1293
     49 H16        11.2017    2.2618    1.0848 H         1 <0>         0.4214
     50 H17        13.2411    3.2072    2.7946 H         1 <0>         0.0761
     51 H18        13.9793    2.1353    1.5803 H         1 <0>         0.0761
     52 H19        13.9616    2.7539   -0.8053 H         1 <0>         0.1360
     53 H20        13.8657    4.6150   -2.4151 H         1 <0>         0.1587
     54 H21        12.1640    7.1208    0.4224 H         1 <0>         0.1583
     55 H22        12.1974    5.3313    2.1139 H         1 <0>         0.1357
@<TRIPOS>BOND
     1    1    6 ar
     2    1    2 ar
     3    1   34 1
     4    2    3 ar
     5    2   35 1
     6    3    4 ar
     7    3   36 1
     8    4   10 ar
     9    4    5 ar
    10    5    6 ar
    11    5    7 ar
    12    6   37 1
    13    7    8 ar
    14    7   38 1
    15    8    9 ar
    16    9   10 ar
    17    9   39 1
    18   10   11 1
    19   11   16 ar
    20   11   12 ar
    21   12   13 ar
    22   12   40 1
    23   13   14 ar
    24   13   41 1
    25   14   15 ar
    26   14   42 1
    27   15   16 ar
    28   15   17 1
    29   16   43 1
    30   17   18 am
    31   17   44 1
    32   18   19 2
    33   18   20 1
    34   20   25 ar
    35   20   21 ar
    36   21   22 ar
    37   21   45 1
    38   22   23 ar
    39   22   46 1
    40   23   24 ar
    41   23   47 1
    42   24   25 ar
    43   24   48 1
    44   25   26 1
    45   26   27 1
    46   26   49 1
    47   27   28 1
    48   27   50 1
    49   27   51 1
    50   28   33 ar
    51   28   29 ar
    52   29   30 ar
    53   29   52 1
    54   30   31 ar
    55   30   53 1
    56   31   32 ar
    57   32   33 ar
    58   32   54 1
    59   33   55 1
@<TRIPOS>MOLECULE
CHEMBL408070
   74    78     0     0     0
SMALL
USER_CHARGES

@<TRIPOS>ATOM
      1 C1          1.9902    1.2566    0.1218 C.3       1 <0>        -0.1382
      2 C2          1.3090   -0.0846    0.0297 C.ar      1 <0>         0.0182
      3 C3          1.2064   -0.7229   -1.1906 C.ar      1 <0>        -0.1328
      4 C4          0.5840   -1.9516   -1.2838 C.ar      1 <0>        -0.0472
      5 C5          0.0533   -2.5577   -0.1422 C.ar      1 <0>        -0.1535
      6 C6          0.1537   -1.9195    1.0920 C.ar      1 <0>        -0.0156
      7 C7          0.7879   -0.6819    1.1798 C.ar      1 <0>        -0.1533
      8 C8          0.9037    0.0002    2.4863 C.2       1 <0>         0.5665
      9 O1          1.3863    1.1142    2.5497 O.2       1 <0>        -0.5071
     10 N1          0.4740   -0.6129    3.6070 N.am      1 <0>        -0.6547
     11 C9          0.4794    0.0749    4.8279 C.ar      1 <0>        -0.0028
     12 C10         0.3743    1.4625    4.8645 C.ar      1 <0>         0.1937
     13 N2          0.3824    2.0776    6.0353 N.ar      1 <0>        -0.5367
     14 C11         0.4887    1.3899    7.1624 C.ar      1 <0>         0.5382
     15 N3          0.5909    0.0693    7.1657 N.ar      1 <0>        -0.5369
     16 C12         0.5840   -0.6136    6.0331 C.ar      1 <0>         0.1658
     17 N4          0.4935    2.0706    8.3707 N.pl3     1 <0>        -0.6389
     18 C13         0.7248    1.3759    9.5649 C.ar      1 <0>         0.1384
     19 C14         1.6028    0.3002    9.5836 C.ar      1 <0>        -0.0678
     20 C15         1.8312   -0.3842   10.7608 C.ar      1 <0>        -0.1619
     21 C16         1.1828    0.0031   11.9262 C.ar      1 <0>         0.1758
     22 C17         0.3047    1.0789   11.9075 C.ar      1 <0>        -0.1606
     23 C18         0.0805    1.7666   10.7314 C.ar      1 <0>        -0.1019
     24 N5          1.4138   -0.6909   13.1194 N.pl3     1 <0>        -0.6457
     25 C19         0.6440   -0.3833   14.3346 C.3       1 <0>         0.1009
     26 C20         0.0904   -1.6939   14.9036 C.3       1 <0>        -0.0233
     27 N6          1.1929   -2.6418   15.1084 N.4       1 <0>        -0.3836
     28 C21         1.7951   -2.9951   13.8166 C.3       1 <0>        -0.0232
     29 C22         2.4292   -1.7529   13.1923 C.3       1 <0>         0.0995
     30 C23         0.6785   -3.8562   15.7553 C.3       1 <0>        -0.0470
     31 C24        -0.6137   -3.8730   -0.2440 C.2       1 <0>         0.5636
     32 O2         -1.0750   -4.3991    0.7501 O.2       1 <0>        -0.5118
     33 N7         -0.7105   -4.4889   -1.4389 N.am      1 <0>        -0.6684
     34 C25        -1.4383   -5.6772   -1.5562 C.ar      1 <0>         0.1443
     35 C26        -1.0201   -6.6655   -2.4383 C.ar      1 <0>        -0.1101
     36 C27        -1.7411   -7.8377   -2.5517 C.ar      1 <0>        -0.0971
     37 C28        -2.8785   -8.0284   -1.7883 C.ar      1 <0>        -0.0846
     38 C29        -3.2975   -7.0468   -0.9093 C.ar      1 <0>        -0.1629
     39 C30        -2.5776   -5.8743   -0.7869 C.ar      1 <0>        -0.0712
     40 C31        -4.5374   -7.2589   -0.0795 C.3       1 <0>         0.5093
     41 F1         -5.0853   -8.5125   -0.3718 F         1 <0>        -0.1747
     42 F2         -4.2054   -7.2002    1.2783 F         1 <0>        -0.1740
     43 F3         -5.4724   -6.2610   -0.3745 F         1 <0>        -0.1753
     44 H1          3.0220    1.1186    0.4449 H         1 <0>         0.0828
     45 H2          1.9769    1.7387   -0.8557 H         1 <0>         0.0681
     46 H3          1.4643    1.8824    0.8428 H         1 <0>         0.1073
     47 H4          1.6146   -0.2585   -2.0761 H         1 <0>         0.1442
     48 H5          0.5068   -2.4453   -2.2412 H         1 <0>         0.1349
     49 H6         -0.2552   -2.3835    1.9774 H         1 <0>         0.1411
     50 H7          0.1611   -1.5302    3.5684 H         1 <0>         0.4151
     51 H8          0.2877    2.0291    3.9492 H         1 <0>         0.1884
     52 H9          0.6628   -1.6907    6.0430 H         1 <0>         0.1735
     53 H10         0.3368    3.0276    8.3889 H         1 <0>         0.4258
     54 H11         2.1068   -0.0012    8.6772 H         1 <0>         0.1371
     55 H12         2.5137   -1.2211   10.7753 H         1 <0>         0.1244
     56 H13        -0.1996    1.3802   12.8138 H         1 <0>         0.1262
     57 H14        -0.5990    2.6060   10.7178 H         1 <0>         0.1310
     58 H15         1.2944    0.0896   15.0704 H         1 <0>         0.0864
     59 H16        -0.1803    0.2854   14.0866 H         1 <0>         0.1257
     60 H17        -0.4016   -1.4974   15.8562 H         1 <0>         0.1401
     61 H18        -0.6290   -2.1189   14.2037 H         1 <0>         0.1322
     62 H19         2.5592   -3.7575   13.9682 H         1 <0>         0.1404
     63 H20         1.0241   -3.3807   13.1495 H         1 <0>         0.1322
     64 H21         2.7847   -1.9892   12.1893 H         1 <0>         0.1265
     65 H22         3.2630   -1.4206   13.8107 H         1 <0>         0.0862
     66 H23        -0.0806   -4.3126   15.1200 H         1 <0>         0.1214
     67 H24         1.4960   -4.5608   15.9079 H         1 <0>         0.1248
     68 H25         0.2383   -3.5964   16.7180 H         1 <0>         0.1248
     69 H26        -0.2752   -4.1079   -2.2175 H         1 <0>         0.4148
     70 H27        -0.1322   -6.5170   -3.0350 H         1 <0>         0.1383
     71 H28        -1.4167   -8.6063   -3.2376 H         1 <0>         0.1433
     72 H29        -3.4408   -8.9460   -1.8791 H         1 <0>         0.1428
     73 H30        -2.9029   -5.1097   -0.0969 H         1 <0>         0.1443
     74 H31         1.8927   -2.2193   15.6999 H         1 <0>         0.4245
@<TRIPOS>BOND
     1    1    2 1
     2    1   44 1
     3    1   45 1
     4    1   46 1
     5    2    7 ar
     6    2    3 ar
     7    3    4 ar
     8    3   47 1
     9    4    5 ar
    10    4   48 1
    11    5    6 ar
    12    5   31 1
    13    6    7 ar
    14    6   49 1
    15    7    8 1
    16    8    9 2
    17    8   10 am
    18   10   11 1
    19   10   50 1
    20   11   16 ar
    21   11   12 ar
    22   12   13 ar
    23   12   51 1
    24   13   14 ar
    25   14   15 ar
    26   14   17 1
    27   15   16 ar
    28   16   52 1
    29   17   18 1
    30   17   53 1
    31   18   23 ar
    32   18   19 ar
    33   19   20 ar
    34   19   54 1
    35   20   21 ar
    36   20   55 1
    37   21   22 ar
    38   21   24 1
    39   22   23 ar
    40   22   56 1
    41   23   57 1
    42   24   29 1
    43   24   25 1
    44   25   26 1
    45   25   58 1
    46   25   59 1
    47   26   27 1
    48   26   60 1
    49   26   61 1
    50   27   28 1
    51   27   30 1
    52   27   74 1
    53   28   29 1
    54   28   62 1
    55   28   63 1
    56   29   64 1
    57   29   65 1
    58   30   66 1
    59   30   67 1
    60   30   68 1
    61   31   32 2
    62   31   33 am
    63   33   34 1
    64   33   69 1
    65   34   39 ar
    66   34   35 ar
    67   35   36 ar
    68   35   70 1
    69   36   37 ar
    70   36   71 1
    71   37   38 ar
    72   37   72 1
    73   38   39 ar
    74   38   40 1
    75   39   73 1
    76   40   41 1
    77   40   42 1
    78   40   43 1
@<TRIPOS>MOLECULE
CHEMBL408070__1
   73    77     0     0     0
SMALL
USER_CHARGES

@<TRIPOS>ATOM
      1 C1          1.9865    1.2584    0.1249 C.3       1 <0>        -0.1377
      2 C2          1.3050   -0.0826    0.0340 C.ar      1 <0>         0.0171
      3 C3          1.2014   -0.7215   -1.1859 C.ar      1 <0>        -0.1340
      4 C4          0.5786   -1.9502   -1.2779 C.ar      1 <0>        -0.0496
      5 C5          0.0487   -2.5556   -0.1357 C.ar      1 <0>        -0.1540
      6 C6          0.1502   -1.9168    1.0982 C.ar      1 <0>        -0.0154
      7 C7          0.7847   -0.6793    1.1848 C.ar      1 <0>        -0.1499
      8 C8          0.9015    0.0035    2.4908 C.2       1 <0>         0.5641
      9 O1          1.3845    1.1174    2.5533 O.2       1 <0>        -0.5096
     10 N1          0.4726   -0.6089    3.6122 N.am      1 <0>        -0.6517
     11 C9          0.4790    0.0795    4.8327 C.ar      1 <0>        -0.0174
     12 C10         0.3743    1.4670    4.8688 C.ar      1 <0>         0.1937
     13 N2          0.3833    2.0828    6.0392 N.ar      1 <0>        -0.5440
     14 C11         0.4904    1.3957    7.1665 C.ar      1 <0>         0.5445
     15 N3          0.5924    0.0750    7.1705 N.ar      1 <0>        -0.5333
     16 C12         0.5845   -0.6085    6.0383 C.ar      1 <0>         0.1707
     17 N4          0.4962    2.0769    8.3745 N.pl3     1 <0>        -0.6335
     18 C13         0.7283    1.3829    9.5689 C.ar      1 <0>         0.1026
     19 C14         1.6061    0.3070    9.5875 C.ar      1 <0>        -0.0608
     20 C15         1.8352   -0.3769   10.7649 C.ar      1 <0>        -0.1798
     21 C16         1.1877    0.0112   11.9306 C.ar      1 <0>         0.2076
     22 C17         0.3099    1.0872   11.9120 C.ar      1 <0>        -0.1792
     23 C18         0.0848    1.7743   10.7356 C.ar      1 <0>        -0.0942
     24 N5          1.4196   -0.6822   13.1239 N.pl3     1 <0>        -0.6322
     25 C19         0.6495   -0.3733   14.3384 C.3       1 <0>         0.1269
     26 C20         0.0797   -1.6807   14.8991 C.3       1 <0>         0.0383
     27 N6          1.1706   -2.6469   15.0843 N.3       1 <0>        -0.5426
     28 C21         1.7995   -2.9927   13.8026 C.3       1 <0>         0.0380
     29 C22         2.4355   -1.7433   13.1953 C.3       1 <0>         0.1261
     30 C23         0.6953   -3.8507   15.7793 C.3       1 <0>         0.0243
     31 C24        -0.6187   -3.8709   -0.2363 C.2       1 <0>         0.5632
     32 O2         -1.0793   -4.3964    0.7584 O.2       1 <0>        -0.5094
     33 N7         -0.7164   -4.4873   -1.4308 N.am      1 <0>        -0.6694
     34 C25        -1.4446   -5.6756   -1.5469 C.ar      1 <0>         0.1459
     35 C26        -1.0272   -6.6644   -2.4288 C.ar      1 <0>        -0.1111
     36 C27        -1.7485   -7.8365   -2.5411 C.ar      1 <0>        -0.0978
     37 C28        -2.8854   -8.0267   -1.7767 C.ar      1 <0>        -0.0857
     38 C29        -3.3035   -7.0445   -0.8980 C.ar      1 <0>        -0.1622
     39 C30        -2.5833   -5.8720   -0.7767 C.ar      1 <0>        -0.0712
     40 C31        -4.5428   -7.2559   -0.0670 C.3       1 <0>         0.5090
     41 F1         -5.0912   -8.5096   -0.3583 F         1 <0>        -0.1755
     42 F2         -4.2098   -7.1966    1.2905 F         1 <0>        -0.1725
     43 F3         -5.4778   -6.2580   -0.3619 F         1 <0>        -0.1756
     44 H1          3.0186    1.1204    0.4472 H         1 <0>         0.0826
     45 H2          1.9725    1.7400   -0.8528 H         1 <0>         0.0663
     46 H3          1.4613    1.8847    0.8460 H         1 <0>         0.1082
     47 H4          1.6090   -0.2577   -2.0719 H         1 <0>         0.1427
     48 H5          0.5006   -2.4443   -2.2351 H         1 <0>         0.1335
     49 H6         -0.2581   -2.3803    1.9841 H         1 <0>         0.1420
     50 H7          0.1595   -1.5262    3.5744 H         1 <0>         0.4137
     51 H8          0.2871    2.0332    3.9532 H         1 <0>         0.1849
     52 H9          0.6630   -1.6855    6.0487 H         1 <0>         0.1715
     53 H10         0.3396    3.0341    8.3923 H         1 <0>         0.4219
     54 H11         2.1093    0.0050    8.6809 H         1 <0>         0.1300
     55 H12         2.5176   -1.2138   10.7793 H         1 <0>         0.1239
     56 H13        -0.1937    1.3890   12.8185 H         1 <0>         0.1255
     57 H14        -0.5944    2.6138   10.7221 H         1 <0>         0.1236
     58 H15         1.3028    0.0886   15.0786 H         1 <0>         0.0694
     59 H16        -0.1667    0.3057   14.0916 H         1 <0>         0.0861
     60 H17        -0.4007   -1.4863   15.8580 H         1 <0>         0.0854
     61 H18        -0.6519   -2.0875   14.2011 H         1 <0>         0.0384
     62 H19         2.5663   -3.7499   13.9663 H         1 <0>         0.0856
     63 H20         1.0439   -3.3813   13.1199 H         1 <0>         0.0382
     64 H21         2.7996   -1.9697   12.1931 H         1 <0>         0.0867
     65 H22         3.2638   -1.4156   13.8235 H         1 <0>         0.0692
     66 H23        -0.0929   -4.3218   15.1921 H         1 <0>         0.0257
     67 H24         1.5228   -4.5492   15.9033 H         1 <0>         0.0701
     68 H25         0.3034   -3.5742   16.7581 H         1 <0>         0.0705
     69 H26        -0.2817   -4.1068   -2.2100 H         1 <0>         0.4143
     70 H27        -0.1398   -6.5164   -3.0263 H         1 <0>         0.1378
     71 H28        -1.4248   -8.6055   -3.2268 H         1 <0>         0.1423
     72 H29        -3.4479   -8.9442   -1.8667 H         1 <0>         0.1422
     73 H30        -2.9079   -5.1071   -0.0868 H         1 <0>         0.1450
@<TRIPOS>BOND
     1    1    2 1
     2    1   44 1
     3    1   45 1
     4    1   46 1
     5    2    7 ar
     6    2    3 ar
     7    3    4 ar
     8    3   47 1
     9    4    5 ar
    10    4   48 1
    11    5    6 ar
    12    5   31 1
    13    6    7 ar
    14    6   49 1
    15    7    8 1
    16    8    9 2
    17    8   10 am
    18   10   11 1
    19   10   50 1
    20   11   16 ar
    21   11   12 ar
    22   12   13 ar
    23   12   51 1
    24   13   14 ar
    25   14   15 ar
    26   14   17 1
    27   15   16 ar
    28   16   52 1
    29   17   18 1
    30   17   53 1
    31   18   23 ar
    32   18   19 ar
    33   19   20 ar
    34   19   54 1
    35   20   21 ar
    36   20   55 1
    37   21   22 ar
    38   21   24 1
    39   22   23 ar
    40   22   56 1
    41   23   57 1
    42   24   29 1
    43   24   25 1
    44   25   26 1
    45   25   58 1
    46   25   59 1
    47   26   27 1
    48   26   60 1
    49   26   61 1
    50   27   28 1
    51   27   30 1
    52   28   29 1
    53   28   62 1
    54   28   63 1
    55   29   64 1
    56   29   65 1
    57   30   66 1
    58   30   67 1
    59   30   68 1
    60   31   32 2
    61   31   33 am
    62   33   34 1
    63   33   69 1
    64   34   39 ar
    65   34   35 ar
    66   35   36 ar
    67   35   70 1
    68   36   37 ar
    69   36   71 1
    70   37   38 ar
    71   37   72 1
    72   38   39 ar
    73   38   40 1
    74   39   73 1
    75   40   41 1
    76   40   42 1
    77   40   43 1
@<TRIPOS>MOLECULE
CHEMBL200885
   61    65     0     0     0
SMALL
USER_CHARGES

@<TRIPOS>ATOM
      1 C1         -8.8935   -5.8420    0.2709 C.3       1 <0>         0.0307
      2 O1         -7.4729   -5.9965    0.2688 O.3       1 <0>        -0.3850
      3 C2         -6.9959   -6.9745   -0.6574 C.3       1 <0>         0.0626
      4 C3         -5.4703   -7.0547   -0.5739 C.3       1 <0>         0.0530
      5 O2         -5.0886   -7.5375    0.7157 O.3       1 <0>        -0.2846
      6 C4         -3.7581   -7.6686    0.9561 C.ar      1 <0>         0.1691
      7 C5         -2.8609   -7.3362   -0.0191 C.ar      1 <0>        -0.1817
      8 C6         -1.4874   -7.4712    0.2283 C.ar      1 <0>         0.1929
      9 C7         -1.0505   -7.9522    1.4911 C.ar      1 <0>        -0.1521
     10 C8         -1.9897   -8.2851    2.4712 C.ar      1 <0>        -0.1655
     11 C9         -3.3229   -8.1384    2.2053 C.ar      1 <0>         0.1311
     12 O3         -4.2371   -8.4564    3.1590 O.3       1 <0>        -0.2931
     13 C10        -3.7323   -8.9290    4.4096 C.3       1 <0>         0.0213
     14 C11         0.3454   -8.0776    1.7121 C.ar      1 <0>         0.3583
     15 N1          1.1694   -7.7374    0.7234 N.ar      1 <0>        -0.5147
     16 C12         0.7116   -7.2948   -0.4337 C.ar      1 <0>         0.3209
     17 N2         -0.5685   -7.1587   -0.6934 N.ar      1 <0>        -0.5082
     18 N3          0.8281   -8.5321    2.9006 N.2       1 <0>        -0.3784
     19 C13         0.9373   -9.8131    3.1123 C.2       1 <0>         0.1651
     20 C14         1.3491  -10.3759    4.4632 C.3       1 <0>        -0.1158
     21 C15         0.3450  -11.4524    4.8171 C.2       1 <0>         0.3666
     22 C16        -0.1361  -12.3680    3.7648 C.2       1 <0>         0.0609
     23 C17         0.0034  -12.0656    2.4492 C.2       1 <0>        -0.1514
     24 C18         0.6607  -10.8171    2.0478 C.2       1 <0>         0.3746
     25 O4          0.9698  -10.6128    0.8887 O.2       1 <0>        -0.3754
     26 O5         -0.7272  -13.5317    4.1182 O.3       1 <0>        -0.2317
     27 C19         0.0350  -14.4733    4.7333 C.ar      1 <0>         0.1100
     28 C20        -0.5513  -15.6374    5.2110 C.ar      1 <0>        -0.1017
     29 C21         0.2230  -16.5941    5.8359 C.ar      1 <0>        -0.0922
     30 C22         1.5885  -16.3923    5.9864 C.ar      1 <0>         0.1134
     31 C23         2.1749  -15.2281    5.5082 C.ar      1 <0>        -0.0893
     32 C24         1.4011  -14.2737    4.8790 C.ar      1 <0>        -0.1672
     33 N4          2.3755  -17.3644    6.6220 N.pl3     1 <0>        -0.4114
     34 C25         3.7265  -17.3004    6.8456 C.2       1 <0>        -0.0561
     35 C26         4.0710  -18.4371    7.4803 C.2       1 <0>        -0.0178
     36 N5          2.9649  -19.1780    7.6423 N.2       1 <0>        -0.4823
     37 C27         1.9419  -18.5438    7.1371 C.2       1 <0>         0.1892
     38 O6         -0.0583  -11.5609    5.9509 O.2       1 <0>        -0.3836
     39 H1         -9.1754   -5.0822    0.9999 H         1 <0>         0.0888
     40 H2         -9.2271   -5.5356   -0.7206 H         1 <0>         0.0428
     41 H3         -9.3618   -6.7902    0.5348 H         1 <0>         0.0438
     42 H4         -7.4248   -7.9463   -0.4127 H         1 <0>         0.0641
     43 H5         -7.2901   -6.6917   -1.6681 H         1 <0>         0.0764
     44 H6         -5.0997   -7.7348   -1.3409 H         1 <0>         0.0859
     45 H7         -5.0452   -6.0634   -0.7312 H         1 <0>         0.0797
     46 H8         -3.2075   -6.9720   -0.9749 H         1 <0>         0.1591
     47 H9         -1.6644   -8.6515    3.4337 H         1 <0>         0.1429
     48 H10        -4.5649   -9.1460    5.0788 H         1 <0>         0.1106
     49 H11        -3.1508   -9.8365    4.2471 H         1 <0>         0.0547
     50 H12        -3.0963   -8.1651    4.8567 H         1 <0>         0.0607
     51 H13         1.4235   -7.0326   -1.2024 H         1 <0>         0.2040
     52 H14         2.3484  -10.8062    4.3981 H         1 <0>         0.1513
     53 H15        -0.3731  -12.7433    1.6973 H         1 <0>         0.1730
     54 H16        -1.6134  -15.7944    5.0939 H         1 <0>         0.1507
     55 H17        -0.2333  -17.4995    6.2081 H         1 <0>         0.1467
     56 H18         3.2369  -15.0708    5.6255 H         1 <0>         0.1409
     57 H19         1.8579  -13.3700    4.5034 H         1 <0>         0.1324
     58 H20         4.3876  -16.4935    6.5660 H         1 <0>         0.1787
     59 H21         5.0661  -18.7057    7.8029 H         1 <0>         0.1765
     60 H22         0.9219  -18.8988    7.1278 H         1 <0>         0.2101
     61 H23         1.3320   -9.5875    5.2156 H         1 <0>         0.1452
@<TRIPOS>BOND
     1    1    2 1
     2    1   39 1
     3    1   40 1
     4    1   41 1
     5    2    3 1
     6    3    4 1
     7    3   42 1
     8    3   43 1
     9    4    5 1
    10    4   44 1
    11    4   45 1
    12    5    6 1
    13    6   11 ar
    14    6    7 ar
    15    7    8 ar
    16    7   46 1
    17    8   17 ar
    18    8    9 ar
    19    9   10 ar
    20    9   14 ar
    21   10   11 ar
    22   10   47 1
    23   11   12 1
    24   12   13 1
    25   13   48 1
    26   13   49 1
    27   13   50 1
    28   14   15 ar
    29   14   18 1
    30   15   16 ar
    31   16   17 ar
    32   16   51 1
    33   18   19 2
    34   19   24 1
    35   19   20 1
    36   20   52 1
    37   20   61 1
    38   20   21 1
    39   21   38 2
    40   21   22 1
    41   22   26 1
    42   22   23 2
    43   23   24 1
    44   23   53 1
    45   24   25 2
    46   26   27 1
    47   27   32 ar
    48   27   28 ar
    49   28   29 ar
    50   28   54 1
    51   29   30 ar
    52   29   55 1
    53   30   31 ar
    54   30   33 1
    55   31   32 ar
    56   31   56 1
    57   32   57 1
    58   33   37 1
    59   33   34 1
    60   34   35 2
    61   34   58 1
    62   35   36 1
    63   35   59 1
    64   36   37 2
    65   37   60 1
@<TRIPOS>MOLECULE
CHEMBL1085296
   62    68     0     0     0
SMALL
USER_CHARGES

@<TRIPOS>ATOM
      1 C1         -1.3481    1.5328   -0.3984 C.3       1 <0>         0.0944
      2 N1         -1.1877    0.0779   -0.3354 N.pl3     1 <0>        -0.3566
      3 C2         -0.9370   -0.7274   -1.3694 C.2       1 <0>         0.1030
      4 C3         -0.8459   -2.0126   -0.8814 C.2       1 <0>        -0.2310
      5 C4         -1.0681   -1.9638    0.4945 C.2       1 <0>         0.0844
      6 N2         -1.2652   -0.7099    0.8246 N.2       1 <0>        -0.3096
      7 C5         -0.5418   -3.1430   -1.7850 C.ar      1 <0>         0.1279
      8 C6         -0.0783   -2.8351   -3.0608 C.ar      1 <0>        -0.1280
      9 C7          0.1656   -3.8629   -3.9674 C.ar      1 <0>         0.1844
     10 C8         -0.0086   -5.2060   -3.5715 C.ar      1 <0>        -0.0947
     11 C9          0.3273   -6.0204   -4.7424 C.ar      1 <0>        -0.0962
     12 C10         0.3324   -7.4000   -4.9441 C.ar      1 <0>        -0.0486
     13 C11         0.7111   -7.8462   -6.1999 C.ar      1 <0>        -0.1100
     14 C12         1.0679   -6.9684   -7.2080 C.ar      1 <0>        -0.0568
     15 C13         1.0686   -5.5954   -7.0251 C.ar      1 <0>        -0.1400
     16 C14         0.6905   -5.1215   -5.7696 C.ar      1 <0>         0.1446
     17 N3          0.5910   -3.8428   -5.2844 N.pl3     1 <0>        -0.4947
     18 C15         0.8916   -2.6302   -6.0497 C.3       1 <0>         0.1034
     19 C16        -0.4024   -2.0651   -6.6389 C.3       1 <0>         0.0542
     20 O1         -0.1092   -0.8823   -7.3853 O.3       1 <0>        -0.5677
     21 C17         0.7355   -9.3276   -6.4751 C.3       1 <0>         0.1359
     22 C18         2.1520   -9.8647   -6.2538 C.3       1 <0>        -0.1451
     23 C19         2.1822  -11.3581   -6.5933 C.3       1 <0>        -0.1241
     24 C20         1.7057  -11.5522   -8.0361 C.3       1 <0>        -0.1583
     25 C21         0.3065  -10.9499   -8.1885 C.3       1 <0>         0.0612
     26 O2          0.3425   -9.5676   -7.8279 O.3       1 <0>        -0.3751
     27 C22        -0.4212   -5.5038   -2.2821 C.ar      1 <0>        -0.0159
     28 C23        -0.6890   -4.4789   -1.3747 C.ar      1 <0>        -0.1898
     29 C24        -1.0953   -5.0870   -0.0983 C.2       1 <0>         0.5741
     30 O3         -1.3904   -4.4645    0.9039 O.2       1 <0>        -0.5239
     31 N4         -1.0941   -6.4272   -0.1955 N.am      1 <0>        -0.7225
     32 C25        -0.6809   -6.7989   -1.5535 C.3       1 <0>         0.1393
     33 C26         0.2073   -1.4121   -3.4572 C.3       1 <0>        -0.0817
     34 C27        -0.7751   -0.4217   -2.8347 C.3       1 <0>        -0.0509
     35 H1         -0.3778    2.0114   -0.2661 H         1 <0>         0.0786
     36 H2         -1.7614    1.8111   -1.3679 H         1 <0>         0.0868
     37 H3         -2.0245    1.8583    0.3919 H         1 <0>         0.0936
     38 H4         -1.0727   -2.8076    1.1686 H         1 <0>         0.2260
     39 H5          0.0549   -8.0878   -4.1590 H         1 <0>         0.1339
     40 H6          1.3559   -7.3671   -8.1695 H         1 <0>         0.1316
     41 H7          1.3497   -4.9212   -7.8206 H         1 <0>         0.1329
     42 H8          1.3456   -1.8888   -5.3921 H         1 <0>         0.1058
     43 H9          1.5831   -2.8720   -6.8568 H         1 <0>         0.1016
     44 H10        -0.8564   -2.8065   -7.2964 H         1 <0>         0.0562
     45 H11        -1.0939   -1.8233   -5.8318 H         1 <0>         0.0567
     46 H12        -0.8850   -0.4692   -7.7884 H         1 <0>         0.3900
     47 H13         0.0451   -9.8340   -5.8006 H         1 <0>         0.0659
     48 H14         2.8491   -9.3303   -6.8991 H         1 <0>         0.0735
     49 H15         2.4368   -9.7223   -5.2113 H         1 <0>         0.0750
     50 H16         3.2000  -11.7346   -6.4917 H         1 <0>         0.0690
     51 H17         1.5223  -11.8996   -5.9154 H         1 <0>         0.0641
     52 H18         2.3939  -11.0519   -8.7174 H         1 <0>         0.0719
     53 H19         1.6713  -12.6166   -8.2682 H         1 <0>         0.0736
     54 H20        -0.0202  -11.0471   -9.2239 H         1 <0>         0.0951
     55 H21        -0.3895  -11.4777   -7.5365 H         1 <0>         0.0507
     56 H22        -1.3277   -7.0461    0.5140 H         1 <0>         0.4271
     57 H23        -1.4762   -7.3552   -2.0496 H         1 <0>         0.1007
     58 H24         0.2294   -7.3975   -1.5167 H         1 <0>         0.1009
     59 H25         1.2173   -1.1536   -3.1391 H         1 <0>         0.0812
     60 H26         0.1500   -1.3303   -4.5426 H         1 <0>         0.0942
     61 H27        -1.7411   -0.5070   -3.3324 H         1 <0>         0.0904
     62 H28        -0.3933    0.5922   -2.9542 H         1 <0>         0.0876
@<TRIPOS>BOND
     1    1    2 1
     2    1   35 1
     3    1   36 1
     4    1   37 1
     5    2    6 1
     6    2    3 1
     7    3   34 1
     8    3    4 2
     9    4    5 1
    10    4    7 1
    11    5    6 2
    12    5   38 1
    13    7   28 ar
    14    7    8 ar
    15    8    9 ar
    16    8   33 1
    17    9   17 1
    18    9   10 ar
    19   10   11 1
    20   10   27 ar
    21   11   16 ar
    22   11   12 ar
    23   12   13 ar
    24   12   39 1
    25   13   14 ar
    26   13   21 1
    27   14   15 ar
    28   14   40 1
    29   15   16 ar
    30   15   41 1
    31   16   17 1
    32   17   18 1
    33   18   19 1
    34   18   42 1
    35   18   43 1
    36   19   20 1
    37   19   44 1
    38   19   45 1
    39   20   46 1
    40   21   26 1
    41   21   22 1
    42   21   47 1
    43   22   23 1
    44   22   48 1
    45   22   49 1
    46   23   24 1
    47   23   50 1
    48   23   51 1
    49   24   25 1
    50   24   52 1
    51   24   53 1
    52   25   26 1
    53   25   54 1
    54   25   55 1
    55   27   32 1
    56   27   28 ar
    57   28   29 1
    58   29   30 2
    59   29   31 am
    60   31   32 1
    61   31   56 1
    62   32   57 1
    63   32   58 1
    64   33   34 1
    65   33   59 1
    66   33   60 1
    67   34   61 1
    68   34   62 1
@<TRIPOS>MOLECULE
CHEMBL1085296__1
   62    68     0     0     0
SMALL
USER_CHARGES

@<TRIPOS>ATOM
      1 C1         -1.3481    1.5328   -0.3984 C.3       1 <0>         0.0944
      2 N1         -1.1877    0.0779   -0.3354 N.pl3     1 <0>        -0.3566
      3 C2         -0.9370   -0.7274   -1.3694 C.2       1 <0>         0.1029
      4 C3         -0.8459   -2.0126   -0.8814 C.2       1 <0>        -0.2309
      5 C4         -1.0681   -1.9638    0.4945 C.2       1 <0>         0.0844
      6 N2         -1.2652   -0.7099    0.8246 N.2       1 <0>        -0.3096
      7 C5         -0.5418   -3.1430   -1.7850 C.ar      1 <0>         0.1279
      8 C6         -0.0783   -2.8351   -3.0608 C.ar      1 <0>        -0.1279
      9 C7          0.1656   -3.8629   -3.9674 C.ar      1 <0>         0.1843
     10 C8         -0.0086   -5.2060   -3.5715 C.ar      1 <0>        -0.0946
     11 C9          0.3273   -6.0204   -4.7424 C.ar      1 <0>        -0.0964
     12 C10         0.3324   -7.4000   -4.9441 C.ar      1 <0>        -0.0476
     13 C11         0.7111   -7.8462   -6.1999 C.ar      1 <0>        -0.1101
     14 C12         1.0679   -6.9684   -7.2080 C.ar      1 <0>        -0.0564
     15 C13         1.0686   -5.5954   -7.0251 C.ar      1 <0>        -0.1401
     16 C14         0.6905   -5.1215   -5.7696 C.ar      1 <0>         0.1451
     17 N3          0.5910   -3.8428   -5.2844 N.pl3     1 <0>        -0.4946
     18 C15         0.8916   -2.6302   -6.0497 C.3       1 <0>         0.1031
     19 C16        -0.4024   -2.0651   -6.6389 C.3       1 <0>         0.0546
     20 O1         -0.1092   -0.8823   -7.3853 O.3       1 <0>        -0.5676
     21 C17         0.7355   -9.3276   -6.4751 C.3       1 <0>         0.1357
     22 C18        -0.5333   -9.7271   -7.2328 C.3       1 <0>        -0.1452
     23 C19        -0.4731  -11.2220   -7.5613 C.3       1 <0>        -0.1241
     24 C20         0.7985  -11.5057   -8.3668 C.3       1 <0>        -0.1583
     25 C21         2.0160  -11.0375   -7.5653 C.3       1 <0>         0.0610
     26 O2          1.8818   -9.6465   -7.2667 O.3       1 <0>        -0.3746
     27 C22        -0.4212   -5.5038   -2.2821 C.ar      1 <0>        -0.0159
     28 C23        -0.6890   -4.4789   -1.3747 C.ar      1 <0>        -0.1897
     29 C24        -1.0953   -5.0870   -0.0983 C.2       1 <0>         0.5741
     30 O3         -1.3904   -4.4645    0.9039 O.2       1 <0>        -0.5239
     31 N4         -1.0941   -6.4272   -0.1955 N.am      1 <0>        -0.7224
     32 C25        -0.6809   -6.7989   -1.5535 C.3       1 <0>         0.1393
     33 C26         0.2073   -1.4121   -3.4572 C.3       1 <0>        -0.0818
     34 C27        -0.7751   -0.4217   -2.8347 C.3       1 <0>        -0.0508
     35 H1         -0.3778    2.0114   -0.2661 H         1 <0>         0.0786
     36 H2         -1.7614    1.8111   -1.3679 H         1 <0>         0.0868
     37 H3         -2.0245    1.8583    0.3919 H         1 <0>         0.0935
     38 H4         -1.0727   -2.8076    1.1686 H         1 <0>         0.2260
     39 H5          0.0549   -8.0878   -4.1590 H         1 <0>         0.1340
     40 H6          1.3559   -7.3671   -8.1695 H         1 <0>         0.1306
     41 H7          1.3497   -4.9212   -7.8206 H         1 <0>         0.1329
     42 H8          1.3456   -1.8888   -5.3921 H         1 <0>         0.1059
     43 H9          1.5831   -2.8720   -6.8568 H         1 <0>         0.1017
     44 H10        -0.8564   -2.8065   -7.2964 H         1 <0>         0.0558
     45 H11        -1.0939   -1.8233   -5.8318 H         1 <0>         0.0567
     46 H12        -0.8850   -0.4692   -7.7884 H         1 <0>         0.3899
     47 H13         0.7824   -9.8718   -5.5318 H         1 <0>         0.0657
     48 H14        -1.4067   -9.5254   -6.6125 H         1 <0>         0.0748
     49 H15        -0.6015   -9.1535   -8.1571 H         1 <0>         0.0733
     50 H16        -0.4549  -11.7983   -6.6363 H         1 <0>         0.0641
     51 H17        -1.3472  -11.5016   -8.1495 H         1 <0>         0.0689
     52 H18         0.8777  -12.5760   -8.5576 H         1 <0>         0.0736
     53 H19         0.7573  -10.9680   -9.3140 H         1 <0>         0.0718
     54 H20         2.0795  -11.6042   -6.6364 H         1 <0>         0.0507
     55 H21         2.9207  -11.1978   -8.1517 H         1 <0>         0.0951
     56 H22        -1.3277   -7.0461    0.5140 H         1 <0>         0.4271
     57 H23        -1.4762   -7.3552   -2.0496 H         1 <0>         0.1006
     58 H24         0.2294   -7.3975   -1.5167 H         1 <0>         0.1011
     59 H25         1.2173   -1.1536   -3.1391 H         1 <0>         0.0813
     60 H26         0.1500   -1.3303   -4.5426 H         1 <0>         0.0941
     61 H27        -1.7411   -0.5070   -3.3324 H         1 <0>         0.0903
     62 H28        -0.3933    0.5922   -2.9542 H         1 <0>         0.0876
@<TRIPOS>BOND
     1    1    2 1
     2    1   35 1
     3    1   36 1
     4    1   37 1
     5    2    6 1
     6    2    3 1
     7    3   34 1
     8    3    4 2
     9    4    5 1
    10    4    7 1
    11    5    6 2
    12    5   38 1
    13    7   28 ar
    14    7    8 ar
    15    8    9 ar
    16    8   33 1
    17    9   17 1
    18    9   10 ar
    19   10   11 1
    20   10   27 ar
    21   11   16 ar
    22   11   12 ar
    23   12   13 ar
    24   12   39 1
    25   13   14 ar
    26   13   21 1
    27   14   15 ar
    28   14   40 1
    29   15   16 ar
    30   15   41 1
    31   16   17 1
    32   17   18 1
    33   18   19 1
    34   18   42 1
    35   18   43 1
    36   19   20 1
    37   19   44 1
    38   19   45 1
    39   20   46 1
    40   21   26 1
    41   21   22 1
    42   21   47 1
    43   22   23 1
    44   22   48 1
    45   22   49 1
    46   23   24 1
    47   23   50 1
    48   23   51 1
    49   24   25 1
    50   24   52 1
    51   24   53 1
    52   25   26 1
    53   25   54 1
    54   25   55 1
    55   27   32 1
    56   27   28 ar
    57   28   29 1
    58   29   30 2
    59   29   31 am
    60   31   32 1
    61   31   56 1
    62   32   57 1
    63   32   58 1
    64   33   34 1
    65   33   59 1
    66   33   60 1
    67   34   61 1
    68   34   62 1
@<TRIPOS>MOLECULE
CHEMBL1172837
   52    56     0     0     0
SMALL
USER_CHARGES

@<TRIPOS>ATOM
      1 C1          0.2567   -0.2968    6.4881 C.ar      1 <0>        -0.1201
      2 C2          0.8575   -1.4921    6.8398 C.ar      1 <0>        -0.1166
      3 C3          1.9449   -1.9566    6.1280 C.ar      1 <0>        -0.1123
      4 C4          2.4372   -1.2191    5.0529 C.ar      1 <0>        -0.0430
      5 C5          1.8276   -0.0158    4.7027 C.ar      1 <0>        -0.1129
      6 C6          0.7411    0.4393    5.4218 C.ar      1 <0>        -0.1171
      7 C7          3.6060   -1.7129    4.2843 C.ar      1 <0>        -0.0595
      8 C8          4.2112   -2.9194    4.6326 C.ar      1 <0>        -0.0888
      9 C9          5.2974   -3.3764    3.9170 C.ar      1 <0>        -0.1140
     10 C10         5.7889   -2.6352    2.8491 C.ar      1 <0>         0.1632
     11 C11         5.1871   -1.4321    2.5000 C.ar      1 <0>        -0.1405
     12 C12         4.0972   -0.9741    3.2092 C.ar      1 <0>        -0.0894
     13 N1          6.8910   -3.1004    2.1249 N.am      1 <0>        -0.6811
     14 C13         7.0558   -4.4229    1.9241 C.2       1 <0>         0.7048
     15 O1          6.2004   -5.2049    2.2920 O.2       1 <0>        -0.5481
     16 N2          8.1687   -4.8786    1.3156 N.am      1 <0>        -0.6807
     17 C14         8.2916   -6.2384    1.0090 C.ar      1 <0>         0.1930
     18 C15         7.1676   -6.9649    0.6284 C.ar      1 <0>        -0.1308
     19 C16         7.2825   -8.3049    0.3246 C.ar      1 <0>        -0.0501
     20 C17         8.5249   -8.9275    0.3999 C.ar      1 <0>        -0.0952
     21 C18         9.6617   -8.2017    0.7827 C.ar      1 <0>         0.1520
     22 C19         9.5332   -6.8506    1.0811 C.ar      1 <0>        -0.1597
     23 N3         10.7649   -9.0465    0.7788 N.am      1 <0>        -0.6471
     24 C20        10.4250  -10.2945    0.4145 C.2       1 <0>         0.5571
     25 O2         11.1819  -11.2445    0.3228 O.2       1 <0>        -0.5231
     26 C21         8.9808  -10.3127    0.1473 C.2       1 <0>        -0.2354
     27 C22         8.2140  -11.3898   -0.2528 C.2       1 <0>         0.0970
     28 C23         8.6177  -12.7020    0.0708 C.2       1 <0>        -0.0237
     29 C24         8.0400  -13.8751   -0.3891 C.2       1 <0>        -0.1194
     30 C25         8.7524  -14.9329    0.1796 C.2       1 <0>        -0.2166
     31 C26         9.7301  -14.4076    0.9588 C.2       1 <0>         0.0408
     32 N4          9.6629  -13.0534    0.8977 N.pl3     1 <0>        -0.5160
     33 H1         10.2508  -12.4360    1.3605 H         1 <0>         0.4229
     34 H2         -0.5966    0.0608    7.0452 H         1 <0>         0.1227
     35 H3          0.4751   -2.0628    7.6732 H         1 <0>         0.1244
     36 H4          2.4136   -2.8896    6.4040 H         1 <0>         0.1254
     37 H5          2.2053    0.5599    3.8706 H         1 <0>         0.1250
     38 H6          0.2682    1.3718    5.1515 H         1 <0>         0.1242
     39 H7          3.8298   -3.4955    5.4627 H         1 <0>         0.1296
     40 H8          5.7669   -4.3108    4.1867 H         1 <0>         0.1371
     41 H9          5.5710   -0.8576    1.6699 H         1 <0>         0.1287
     42 H10         3.6270   -0.0413    2.9348 H         1 <0>         0.1307
     43 H11         7.5368   -2.4714    1.7671 H         1 <0>         0.4095
     44 H12         8.8844   -4.2640    1.0901 H         1 <0>         0.4098
     45 H13         6.2048   -6.4791    0.5712 H         1 <0>         0.1419
     46 H14         6.4106   -8.8699    0.0294 H         1 <0>         0.1342
     47 H15        10.4010   -6.2777    1.3731 H         1 <0>         0.1306
     48 H16        11.6658   -8.7705    1.0093 H         1 <0>         0.4173
     49 H17         7.3053  -11.2272   -0.8135 H         1 <0>         0.1575
     50 H18         7.1976  -13.9558   -1.0601 H         1 <0>         0.1478
     51 H19         8.5586  -15.9843    0.0264 H         1 <0>         0.1439
     52 H20        10.4483  -14.9749    1.5322 H         1 <0>         0.1701
@<TRIPOS>BOND
     1    1    6 ar
     2    1    2 ar
     3    1   34 1
     4    2    3 ar
     5    2   35 1
     6    3    4 ar
     7    3   36 1
     8    4    5 ar
     9    4    7 1
    10    5    6 ar
    11    5   37 1
    12    6   38 1
    13    7   12 ar
    14    7    8 ar
    15    8    9 ar
    16    8   39 1
    17    9   10 ar
    18    9   40 1
    19   10   11 ar
    20   10   13 1
    21   11   12 ar
    22   11   41 1
    23   12   42 1
    24   13   14 am
    25   13   43 1
    26   14   15 2
    27   14   16 am
    28   16   17 1
    29   16   44 1
    30   17   22 ar
    31   17   18 ar
    32   18   19 ar
    33   18   45 1
    34   19   20 ar
    35   19   46 1
    36   20   26 1
    37   20   21 ar
    38   21   22 ar
    39   21   23 1
    40   22   47 1
    41   23   24 am
    42   23   48 1
    43   24   25 2
    44   24   26 1
    45   26   27 2
    46   27   28 1
    47   27   49 1
    48   28   32 1
    49   28   29 2
    50   29   30 1
    51   29   50 1
    52   30   31 2
    53   30   51 1
    54   31   32 1
    55   31   52 1
    56   32   33 1
@<TRIPOS>MOLECULE
CHEMBL1172838
   58    63     0     0     0
SMALL
USER_CHARGES

@<TRIPOS>ATOM
      1 C1         -0.0583   -2.5457    8.2195 C.ar      1 <0>        -0.1163
      2 C2          0.5381   -3.7508    8.5861 C.ar      1 <0>        -0.1153
      3 C3          1.6133   -4.2350    7.9068 C.ar      1 <0>        -0.1066
      4 C4          2.1325   -3.5113    6.8185 C.ar      1 <0>        -0.0479
      5 C5          3.2398   -3.9819    6.0958 C.ar      1 <0>        -0.0985
      6 C6          3.7214   -3.2426    5.0318 C.ar      1 <0>        -0.0380
      7 C7          3.1127   -2.0291    4.6717 C.ar      1 <0>        -0.1083
      8 C8          2.0409   -1.5565    5.3586 C.ar      1 <0>        -0.1019
      9 C9          1.5257   -2.2853    6.4458 C.ar      1 <0>        -0.0528
     10 C10         0.4171   -1.8183    7.1718 C.ar      1 <0>        -0.1064
     11 C11         4.8911   -3.7346    4.2642 C.ar      1 <0>        -0.0601
     12 C12         5.4974   -4.9409    4.6123 C.ar      1 <0>        -0.0888
     13 C13         6.5846   -5.3962    3.8974 C.ar      1 <0>        -0.1138
     14 C14         7.0766   -4.6536    2.8306 C.ar      1 <0>         0.1640
     15 C15         6.4742   -3.4506    2.4820 C.ar      1 <0>        -0.1404
     16 C16         5.3827   -2.9945    3.1898 C.ar      1 <0>        -0.0884
     17 N1          8.1798   -5.1173    2.1072 N.am      1 <0>        -0.6811
     18 C17         8.3462   -6.4395    1.9059 C.2       1 <0>         0.7049
     19 O1          7.4911   -7.2226    2.2719 O.2       1 <0>        -0.5479
     20 N2          9.4606   -6.8937    1.2990 N.am      1 <0>        -0.6807
     21 C18         9.5858   -8.2534    0.9927 C.ar      1 <0>         0.1930
     22 C19         8.4632   -8.9816    0.6112 C.ar      1 <0>        -0.1308
     23 C20         8.5801  -10.3216    0.3086 C.ar      1 <0>        -0.0501
     24 C21         9.8234  -10.9426    0.3856 C.ar      1 <0>        -0.0952
     25 C22        10.9588  -10.2149    0.7689 C.ar      1 <0>         0.1520
     26 C23        10.8282   -8.8637    1.0662 C.ar      1 <0>        -0.1597
     27 N3         12.0631  -11.0583    0.7668 N.am      1 <0>        -0.6471
     28 C24        11.7252  -12.3070    0.4032 C.2       1 <0>         0.5571
     29 O2         12.4835  -13.2561    0.3129 O.2       1 <0>        -0.5231
     30 C25        10.2813  -12.3274    0.1345 C.2       1 <0>        -0.2354
     31 C26         9.5163  -13.4058   -0.2655 C.2       1 <0>         0.0970
     32 C27         9.9217  -14.7172    0.0594 C.2       1 <0>        -0.0237
     33 C28         9.3463  -15.8915   -0.4007 C.2       1 <0>        -0.1193
     34 C29        10.0594  -16.9479    0.1697 C.2       1 <0>        -0.2167
     35 C30        11.0352  -16.4206    0.9500 C.2       1 <0>         0.0408
     36 N4         10.9663  -15.0666    0.8878 N.pl3     1 <0>        -0.5159
     37 H1         11.5531  -14.4481    1.3504 H         1 <0>         0.4229
     38 H2         -0.9134   -2.1858    8.7723 H         1 <0>         0.1235
     39 H3          0.1414   -4.3084    9.4217 H         1 <0>         0.1238
     40 H4          2.0657   -5.1702    8.2021 H         1 <0>         0.1275
     41 H5          3.7119   -4.9141    6.3690 H         1 <0>         0.1310
     42 H6          3.5025   -1.4642    3.8378 H         1 <0>         0.1269
     43 H7          1.5840   -0.6214    5.0702 H         1 <0>         0.1292
     44 H8         -0.0560   -0.8864    6.8995 H         1 <0>         0.1272
     45 H9          5.1159   -5.5180    5.4417 H         1 <0>         0.1295
     46 H10         7.0546   -6.3305    4.1667 H         1 <0>         0.1372
     47 H11         6.8588   -2.8749    1.6531 H         1 <0>         0.1289
     48 H12         4.9119   -2.0620    2.9155 H         1 <0>         0.1313
     49 H13         8.8252   -4.4873    1.7502 H         1 <0>         0.4095
     50 H14        10.1758   -6.2782    1.0745 H         1 <0>         0.4098
     51 H15         7.4999   -8.4970    0.5523 H         1 <0>         0.1419
     52 H16         7.7094  -10.8880    0.0130 H         1 <0>         0.1341
     53 H17        11.6949   -8.2895    1.3587 H         1 <0>         0.1306
     54 H18        12.9634  -10.7809    0.9980 H         1 <0>         0.4173
     55 H19         8.6079  -13.2448   -0.8269 H         1 <0>         0.1575
     56 H20         8.5051  -15.9737   -1.0730 H         1 <0>         0.1478
     57 H21         9.8676  -17.9996    0.0164 H         1 <0>         0.1439
     58 H22        11.7533  -16.9866    1.5248 H         1 <0>         0.1701
@<TRIPOS>BOND
     1    1   10 ar
     2    1    2 ar
     3    1   38 1
     4    2    3 ar
     5    2   39 1
     6    3    4 ar
     7    3   40 1
     8    4    9 ar
     9    4    5 ar
    10    5    6 ar
    11    5   41 1
    12    6    7 ar
    13    6   11 1
    14    7    8 ar
    15    7   42 1
    16    8    9 ar
    17    8   43 1
    18    9   10 ar
    19   10   44 1
    20   11   16 ar
    21   11   12 ar
    22   12   13 ar
    23   12   45 1
    24   13   14 ar
    25   13   46 1
    26   14   15 ar
    27   14   17 1
    28   15   16 ar
    29   15   47 1
    30   16   48 1
    31   17   18 am
    32   17   49 1
    33   18   19 2
    34   18   20 am
    35   20   21 1
    36   20   50 1
    37   21   26 ar
    38   21   22 ar
    39   22   23 ar
    40   22   51 1
    41   23   24 ar
    42   23   52 1
    43   24   30 1
    44   24   25 ar
    45   25   26 ar
    46   25   27 1
    47   26   53 1
    48   27   28 am
    49   27   54 1
    50   28   29 2
    51   28   30 1
    52   30   31 2
    53   31   32 1
    54   31   55 1
    55   32   36 1
    56   32   33 2
    57   33   34 1
    58   33   56 1
    59   34   35 2
    60   34   57 1
    61   35   36 1
    62   35   58 1
    63   36   37 1
@<TRIPOS>MOLECULE
CHEMBL331465
   54    58     0     0     0
SMALL
USER_CHARGES

@<TRIPOS>ATOM
      1 C1         -0.2322    1.2828    0.1464 C.ar      1 <0>        -0.1230
      2 C2          0.9677    1.9590    0.0159 C.ar      1 <0>        -0.1188
      3 C3          2.1541    1.2578   -0.0529 C.ar      1 <0>        -0.1116
      4 C4          2.1420   -0.1354    0.0098 C.ar      1 <0>         0.0044
      5 C5          0.9292   -0.8114    0.1419 C.ar      1 <0>        -0.0971
      6 C6         -0.2506   -0.0991    0.2092 C.ar      1 <0>        -0.1183
      7 C7          3.4121   -0.8942   -0.0640 C.2       1 <0>        -0.1945
      8 C8          4.4212   -0.7322   -1.0192 C.2       1 <0>         0.1092
      9 N1          5.3889   -1.5785   -0.7611 N.2       1 <0>        -0.3072
     10 N2          5.0550   -2.3290    0.3719 N.pl3     1 <0>        -0.3089
     11 C9          3.8293   -1.9035    0.8133 C.2       1 <0>         0.2681
     12 N3          3.2623   -2.4487    1.8946 N.2       1 <0>        -0.4530
     13 C10         3.8634   -3.4024    2.5649 C.2       1 <0>         0.1963
     14 C11         5.1291   -3.8697    2.1495 C.2       1 <0>        -0.1399
     15 C12         5.7099   -3.3224    1.0397 C.2       1 <0>         0.1758
     16 C13         5.8165   -4.9478    2.9029 C.ar      1 <0>        -0.0878
     17 C14         6.0523   -6.1810    2.2982 C.ar      1 <0>        -0.0578
     18 C15         6.6918   -7.1810    3.0007 C.ar      1 <0>        -0.1488
     19 C16         7.0999   -6.9601    4.3090 C.ar      1 <0>         0.1460
     20 C17         6.8663   -5.7327    4.9140 C.ar      1 <0>        -0.2098
     21 C18         6.2324   -4.7271    4.2145 C.ar      1 <0>        -0.0537
     22 O1          7.7289   -7.9475    4.9991 O.3       1 <0>        -0.2952
     23 C19         8.1217   -7.6523    6.3409 C.3       1 <0>         0.0649
     24 C20         8.8092   -8.8751    6.9517 C.3       1 <0>         0.0537
     25 N4         10.0613   -9.1435    6.2318 N.3       1 <0>        -0.5312
     26 C21        10.5125  -10.5245    6.4563 C.3       1 <0>         0.0185
     27 C22        11.7841  -10.7788    5.6425 C.3       1 <0>         0.0627
     28 O2         12.7783   -9.8182    6.0085 O.3       1 <0>        -0.3849
     29 C23        12.3724   -8.4624    5.8022 C.3       1 <0>         0.0635
     30 C24        11.1068   -8.1846    6.6176 C.3       1 <0>         0.0139
     31 H1         -1.1578    1.8362    0.2040 H         1 <0>         0.1206
     32 H2          0.9758    3.0379   -0.0325 H         1 <0>         0.1224
     33 H3          3.0901    1.7868   -0.1555 H         1 <0>         0.1211
     34 H4          0.9135   -1.8902    0.1906 H         1 <0>         0.1184
     35 H5         -1.1904   -0.6214    0.3115 H         1 <0>         0.1217
     36 H6          4.4056   -0.0258   -1.8360 H         1 <0>         0.2019
     37 H7          3.3897   -3.8306    3.4359 H         1 <0>         0.1820
     38 H8          6.6783   -3.6624    0.7038 H         1 <0>         0.1813
     39 H9          5.7344   -6.3537    1.2806 H         1 <0>         0.1313
     40 H10         6.8748   -8.1369    2.5326 H         1 <0>         0.1357
     41 H11         7.1846   -5.5638    5.9321 H         1 <0>         0.1308
     42 H12         6.0546   -3.7710    4.6843 H         1 <0>         0.1283
     43 H13         8.8129   -6.8095    6.3401 H         1 <0>         0.0641
     44 H14         7.2404   -7.3989    6.9301 H         1 <0>         0.0694
     45 H15         9.0282   -8.6820    8.0019 H         1 <0>         0.0625
     46 H16         8.1510   -9.7402    6.8709 H         1 <0>         0.0893
     47 H17        10.7229  -10.6710    7.5157 H         1 <0>         0.0440
     48 H18         9.7332  -11.2180    6.1400 H         1 <0>         0.0890
     49 H19        12.1543  -11.7828    5.8500 H         1 <0>         0.0997
     50 H20        11.5610  -10.6849    4.5797 H         1 <0>         0.0615
     51 H21        13.1681   -7.7911    6.1252 H         1 <0>         0.0989
     52 H22        12.1664   -8.3012    4.7441 H         1 <0>         0.0610
     53 H23        10.7613   -7.1700    6.4191 H         1 <0>         0.0848
     54 H24        11.3267   -8.2937    7.6795 H         1 <0>         0.0450
@<TRIPOS>BOND
     1    1    6 ar
     2    1    2 ar
     3    1   31 1
     4    2    3 ar
     5    2   32 1
     6    3    4 ar
     7    3   33 1
     8    4    5 ar
     9    4    7 1
    10    5    6 ar
    11    5   34 1
    12    6   35 1
    13    7   11 2
    14    7    8 1
    15    8    9 2
    16    8   36 1
    17    9   10 1
    18   10   15 1
    19   10   11 1
    20   11   12 1
    21   12   13 2
    22   13   14 1
    23   13   37 1
    24   14   15 2
    25   14   16 1
    26   15   38 1
    27   16   21 ar
    28   16   17 ar
    29   17   18 ar
    30   17   39 1
    31   18   19 ar
    32   18   40 1
    33   19   20 ar
    34   19   22 1
    35   20   21 ar
    36   20   41 1
    37   21   42 1
    38   22   23 1
    39   23   24 1
    40   23   43 1
    41   23   44 1
    42   24   25 1
    43   24   45 1
    44   24   46 1
    45   25   30 1
    46   25   26 1
    47   26   27 1
    48   26   47 1
    49   26   48 1
    50   27   28 1
    51   27   49 1
    52   27   50 1
    53   28   29 1
    54   29   30 1
    55   29   51 1
    56   29   52 1
    57   30   53 1
    58   30   54 1
@<TRIPOS>MOLECULE
CHEMBL331465__1
   55    59     0     0     0
SMALL
USER_CHARGES

@<TRIPOS>ATOM
      1 C1          0.3224    2.0844    0.6984 C.ar      1 <0>        -0.1188
      2 C2          1.5463    2.7282    0.6599 C.ar      1 <0>        -0.1177
      3 C3          2.7121    1.9952    0.5726 C.ar      1 <0>        -0.1095
      4 C4          2.6547    0.6025    0.5236 C.ar      1 <0>        -0.0038
      5 C5          1.4178   -0.0407    0.5633 C.ar      1 <0>        -0.0960
      6 C6          0.2590    0.7032    0.6502 C.ar      1 <0>        -0.1181
      7 C7          3.9025   -0.1903    0.4293 C.2       1 <0>        -0.1808
      8 C8          4.9479    0.0124   -0.4779 C.2       1 <0>         0.1127
      9 N1          5.8796   -0.8836   -0.2579 N.2       1 <0>        -0.3031
     10 N2          5.4845   -1.7093    0.8005 N.pl3     1 <0>        -0.3124
     11 C9          4.2583   -1.2790    1.2359 C.2       1 <0>         0.2633
     12 N3          3.6384   -1.8882    2.2520 N.2       1 <0>        -0.4453
     13 C10         4.1867   -2.9114    2.8626 C.2       1 <0>         0.1930
     14 C11         5.4506   -3.3867    2.4511 C.2       1 <0>        -0.1610
     15 C12         6.0853   -2.7735    1.4072 C.2       1 <0>         0.1854
     16 C13         6.0783   -4.5432    3.1373 C.ar      1 <0>        -0.0556
     17 C14         6.2963   -5.7322    2.4438 C.ar      1 <0>        -0.0587
     18 C15         6.8803   -6.8052    3.0840 C.ar      1 <0>        -0.1367
     19 C16         7.2505   -6.7018    4.4179 C.ar      1 <0>         0.1205
     20 C17         7.0346   -5.5187    5.1112 C.ar      1 <0>        -0.1988
     21 C18         6.4563   -4.4404    4.4747 C.ar      1 <0>        -0.0555
     22 O1          7.8249   -7.7610    5.0464 O.3       1 <0>        -0.3281
     23 C19         8.1810   -7.5857    6.4191 C.3       1 <0>         0.0246
     24 C20         8.8092   -8.8751    6.9517 C.3       1 <0>        -0.0002
     25 N4         10.0613   -9.1435    6.2318 N.4       1 <0>        -0.3871
     26 C21        10.5904  -10.4521    6.6400 C.3       1 <0>        -0.0436
     27 C22        11.8947  -10.7294    5.8884 C.3       1 <0>         0.0353
     28 O2         12.8268   -9.6786    6.1578 O.3       1 <0>        -0.3556
     29 C23        12.3469   -8.3798    5.7990 C.3       1 <0>         0.0370
     30 C24        11.0435   -8.0981    6.5505 C.3       1 <0>        -0.0499
     31 H1         -0.5872    2.6623    0.7710 H         1 <0>         0.1227
     32 H2          1.5894    3.8066    0.6979 H         1 <0>         0.1244
     33 H3          3.6669    2.4989    0.5418 H         1 <0>         0.1217
     34 H4          1.3671   -1.1189    0.5253 H         1 <0>         0.1178
     35 H5         -0.6994    0.2063    0.6810 H         1 <0>         0.1231
     36 H6          4.9819    0.7810   -1.2358 H         1 <0>         0.2053
     37 H7          3.6707   -3.3906    3.6814 H         1 <0>         0.1809
     38 H8          7.0536   -3.1184    1.0757 H         1 <0>         0.1802
     39 H9          6.0078   -5.8135    1.4062 H         1 <0>         0.1390
     40 H10         7.0494   -7.7270    2.5472 H         1 <0>         0.1380
     41 H11         7.3234   -5.4412    6.1491 H         1 <0>         0.1323
     42 H12         6.2924   -3.5189    5.0134 H         1 <0>         0.1360
     43 H13         8.8976   -6.7690    6.5072 H         1 <0>         0.0875
     44 H14         7.2885   -7.3500    6.9988 H         1 <0>         0.1128
     45 H15         9.0184   -8.7648    8.0158 H         1 <0>         0.1513
     46 H16         8.1186   -9.7048    6.8013 H         1 <0>         0.1452
     47 H17        10.7828  -10.4478    7.7129 H         1 <0>         0.1404
     48 H18         9.8625  -11.2283    6.4039 H         1 <0>         0.1444
     49 H19        12.3115  -11.6800    6.2212 H         1 <0>         0.1435
     50 H20        11.6955  -10.7736    4.8176 H         1 <0>         0.0820
     51 H21        13.0911   -7.6299    6.0672 H         1 <0>         0.1427
     52 H22        12.1632   -8.3435    4.7252 H         1 <0>         0.0818
     53 H23        10.6520   -7.1269    6.2479 H         1 <0>         0.1398
     54 H24        11.2357   -8.0947    7.6234 H         1 <0>         0.1416
     55 H25         9.8841   -9.1470    5.2384 H         1 <0>         0.4301
@<TRIPOS>BOND
     1    1    6 ar
     2    1    2 ar
     3    1   31 1
     4    2    3 ar
     5    2   32 1
     6    3    4 ar
     7    3   33 1
     8    4    5 ar
     9    4    7 1
    10    5    6 ar
    11    5   34 1
    12    6   35 1
    13    7   11 2
    14    7    8 1
    15    8    9 2
    16    8   36 1
    17    9   10 1
    18   10   15 1
    19   10   11 1
    20   11   12 1
    21   12   13 2
    22   13   14 1
    23   13   37 1
    24   14   15 2
    25   14   16 1
    26   15   38 1
    27   16   21 ar
    28   16   17 ar
    29   17   18 ar
    30   17   39 1
    31   18   19 ar
    32   18   40 1
    33   19   20 ar
    34   19   22 1
    35   20   21 ar
    36   20   41 1
    37   21   42 1
    38   22   23 1
    39   23   24 1
    40   23   43 1
    41   23   44 1
    42   24   25 1
    43   24   45 1
    44   24   46 1
    45   25   30 1
    46   25   26 1
    47   25   55 1
    48   26   27 1
    49   26   47 1
    50   26   48 1
    51   27   28 1
    52   27   49 1
    53   27   50 1
    54   28   29 1
    55   29   30 1
    56   29   51 1
    57   29   52 1
    58   30   53 1
    59   30   54 1
@<TRIPOS>MOLECULE
CHEMBL402531
   56    62     0     0     0
SMALL
USER_CHARGES

@<TRIPOS>ATOM
      1 C1         -0.7917   -2.3160   -0.5842 C.3       1 <0>        -0.1804
      2 C2         -0.3184   -1.0798    0.1831 C.3       1 <0>         0.0933
      3 N1          0.4942   -1.4974    1.3283 N.pl3     1 <0>        -0.4903
      4 C3          1.8602   -1.5601    1.3353 C.ar      1 <0>         0.1743
      5 C4          2.7924   -1.2674    0.3365 C.ar      1 <0>        -0.1440
      6 C5          4.1181   -1.4299    0.6440 C.ar      1 <0>        -0.0284
      7 C6          4.5436   -1.8706    1.9001 C.ar      1 <0>        -0.1907
      8 C7          3.6278   -2.1695    2.9175 C.ar      1 <0>        -0.0143
      9 C8          2.2821   -2.0038    2.6112 C.ar      1 <0>        -0.1076
     10 C9          1.0678   -2.2074    3.4065 C.ar      1 <0>        -0.0931
     11 C10        -0.0113   -1.8791    2.5594 C.ar      1 <0>         0.1826
     12 C11        -1.3180   -1.9610    3.0346 C.ar      1 <0>        -0.1145
     13 C12        -1.5437   -2.4019    4.3348 C.ar      1 <0>         0.1287
     14 C13        -0.4731   -2.7021    5.1943 C.ar      1 <0>        -0.1918
     15 C14         0.8325   -2.6103    4.7113 C.ar      1 <0>        -0.0170
     16 C15         1.7385   -2.9984    5.8531 C.3       1 <0>         0.1358
     17 N2          0.8579   -3.3206    6.9818 N.am      1 <0>        -0.7197
     18 C16        -0.4167   -3.1381    6.5981 C.2       1 <0>         0.5769
     19 O1         -1.3875   -3.3212    7.3072 O.2       1 <0>        -0.5316
     20 C17        -2.9499   -2.5865    4.7565 C.2       1 <0>        -0.2434
     21 C18        -3.5077   -2.7816    5.9695 C.2       1 <0>         0.1050
     22 N3         -4.8452   -2.8675    5.7889 N.pl3     1 <0>        -0.3861
     23 N4         -5.1164   -2.7276    4.4181 N.2       1 <0>        -0.2889
     24 C19        -3.9964   -2.5684    3.7924 C.2       1 <0>         0.0930
     25 C20        -3.7028   -2.4042    2.3233 C.3       1 <0>        -0.0327
     26 C21        -2.4559   -1.5418    2.1451 C.3       1 <0>        -0.0868
     27 C22        -5.8413   -3.0721    6.8435 C.3       1 <0>         0.1027
     28 C23         5.9891   -2.0250    2.1605 C.2       1 <0>         0.4834
     29 O2          6.7570   -2.2187    1.2356 O.2       1 <0>        -0.4442
     30 C24         6.4989   -1.9452    3.5310 C.2       1 <0>        -0.2786
     31 C25         7.7822   -2.1877    4.0032 C.2       1 <0>        -0.0655
     32 C26         7.9592   -2.0295    5.3558 C.2       1 <0>        -0.1867
     33 C27         6.9017   -1.6577    6.1206 C.2       1 <0>        -0.2277
     34 S1          5.6358   -1.5038    5.0271 S.3       1 <0>         0.2185
     35 H1         -1.3892   -2.9459    0.0748 H         1 <0>         0.0690
     36 H2         -1.3963   -2.0053   -1.4363 H         1 <0>         0.0806
     37 H3          0.0731   -2.8774   -0.9378 H         1 <0>         0.0668
     38 H4          0.2791   -0.4499   -0.4759 H         1 <0>         0.0958
     39 H5         -1.1832   -0.5184    0.5366 H         1 <0>         0.1017
     40 H6          2.4805   -0.9267   -0.6397 H         1 <0>         0.1407
     41 H7          4.8592   -1.2103   -0.1102 H         1 <0>         0.1376
     42 H8          3.9509   -2.5111    3.8898 H         1 <0>         0.1391
     43 H9          2.3328   -3.8705    5.5804 H         1 <0>         0.1028
     44 H10         2.3916   -2.1654    6.1131 H         1 <0>         0.1022
     45 H11         1.1483   -3.6043    7.8627 H         1 <0>         0.4276
     46 H12        -2.9830   -2.8560    6.9106 H         1 <0>         0.2206
     47 H13        -3.5342   -3.3833    1.8750 H         1 <0>         0.0881
     48 H14        -4.5501   -1.9226    1.8352 H         1 <0>         0.0906
     49 H15        -2.7114   -0.5057    2.3674 H         1 <0>         0.0807
     50 H16        -2.1310   -1.6053    1.1066 H         1 <0>         0.0945
     51 H17        -6.1700   -2.1055    7.2253 H         1 <0>         0.0751
     52 H18        -6.6963   -3.6115    6.4359 H         1 <0>         0.0890
     53 H19        -5.3989   -3.6515    7.6538 H         1 <0>         0.0904
     54 H20         8.5892   -2.4823    3.3487 H         1 <0>         0.1497
     55 H21         8.9268   -2.1989    5.8047 H         1 <0>         0.1381
     56 H22         6.8801   -1.4935    7.1878 H         1 <0>         0.1889
@<TRIPOS>BOND
     1    1    2 1
     2    1   35 1
     3    1   36 1
     4    1   37 1
     5    2    3 1
     6    2   38 1
     7    2   39 1
     8    3   11 1
     9    3    4 1
    10    4    9 ar
    11    4    5 ar
    12    5    6 ar
    13    5   40 1
    14    6    7 ar
    15    6   41 1
    16    7    8 ar
    17    7   28 1
    18    8    9 ar
    19    8   42 1
    20    9   10 1
    21   10   15 ar
    22   10   11 ar
    23   11   12 ar
    24   12   26 1
    25   12   13 ar
    26   13   14 ar
    27   13   20 1
    28   14   18 1
    29   14   15 ar
    30   15   16 1
    31   16   17 1
    32   16   43 1
    33   16   44 1
    34   17   18 am
    35   17   45 1
    36   18   19 2
    37   20   24 1
    38   20   21 2
    39   21   22 1
    40   21   46 1
    41   22   23 1
    42   22   27 1
    43   23   24 2
    44   24   25 1
    45   25   26 1
    46   25   47 1
    47   25   48 1
    48   26   49 1
    49   26   50 1
    50   27   51 1
    51   27   52 1
    52   27   53 1
    53   28   29 2
    54   28   30 1
    55   30   34 1
    56   30   31 2
    57   31   32 1
    58   31   54 1
    59   32   33 2
    60   32   55 1
    61   33   34 1
    62   33   56 1
@<TRIPOS>MOLECULE
CHEMBL196363
   44    47     0     0     0
SMALL
USER_CHARGES

@<TRIPOS>ATOM
      1 C1          0.5811    1.1696    0.6372 C.3       1 <0>        -0.1157
      2 C2         -0.1481   -0.0908    1.0254 C.ar      1 <0>        -0.0663
      3 C3         -1.2605   -0.4937    0.3092 C.ar      1 <0>        -0.1334
      4 C4         -1.9321   -1.6496    0.6618 C.ar      1 <0>        -0.0955
      5 C5         -1.4936   -2.4059    1.7314 C.ar      1 <0>        -0.1234
      6 C6         -0.3771   -2.0042    2.4524 C.ar      1 <0>         0.1629
      7 C7          0.2984   -0.8452    2.0924 C.ar      1 <0>        -0.1454
      8 N1          0.0694   -2.7678    3.5367 N.am      1 <0>        -0.6811
      9 C8         -0.0349   -4.1111    3.5032 C.2       1 <0>         0.7038
     10 O1         -0.4293   -4.6654    2.4954 O.2       1 <0>        -0.5504
     11 N2          0.2980   -4.8401    4.5868 N.am      1 <0>        -0.6831
     12 C9          0.2939   -6.2381    4.5181 C.ar      1 <0>         0.1729
     13 C10         0.6767   -6.8758    3.3444 C.ar      1 <0>        -0.1146
     14 C11         0.6736   -8.2529    3.2739 C.ar      1 <0>        -0.0776
     15 C12         0.2862   -9.0056    4.3821 C.ar      1 <0>        -0.0660
     16 C13        -0.0970   -8.3630    5.5589 C.ar      1 <0>        -0.0838
     17 C14        -0.0874   -6.9857    5.6255 C.ar      1 <0>        -0.1456
     18 C15         0.2814  -10.4861    4.3092 C.2       1 <0>        -0.0391
     19 C16         1.4078  -11.1641    3.9875 C.2       1 <0>        -0.1609
     20 S1          0.8942  -12.8705    4.0339 S.3       1 <0>         0.1172
     21 C17        -0.8063  -12.6401    4.4800 C.ar      1 <0>         0.1481
     22 C18        -0.9363  -11.2400    4.5887 C.ar      1 <0>        -0.2423
     23 C19        -2.2287  -10.7734    4.9480 C.ar      1 <0>         0.4931
     24 N3         -3.1976  -11.6508    5.1562 N.ar      1 <0>        -0.5867
     25 C20        -3.0036  -12.9520    5.0409 C.ar      1 <0>         0.3643
     26 N4         -1.8280  -13.4443    4.7011 N.ar      1 <0>        -0.5212
     27 N5         -2.4720   -9.4178    5.0792 N.pl3     1 <0>        -0.8323
     28 H1          1.3565    0.9311   -0.0908 H         1 <0>         0.0725
     29 H2         -0.1233    1.8767    0.1993 H         1 <0>         0.0691
     30 H3          1.0376    1.6125    1.5224 H         1 <0>         0.0667
     31 H4         -1.6056    0.0961   -0.5272 H         1 <0>         0.1242
     32 H5         -2.8007   -1.9614    0.1008 H         1 <0>         0.1269
     33 H6         -2.0188   -3.3086    2.0066 H         1 <0>         0.1329
     34 H7          1.1696   -0.5323    2.6487 H         1 <0>         0.1250
     35 H8          0.4540   -2.3304    4.3124 H         1 <0>         0.4089
     36 H9          0.5405   -4.3959    5.4144 H         1 <0>         0.4103
     37 H10         0.9766   -6.2924    2.4865 H         1 <0>         0.1399
     38 H11         0.9705   -8.7480    2.3612 H         1 <0>         0.1326
     39 H12        -0.3975   -8.9436    6.4186 H         1 <0>         0.1318
     40 H13        -0.3802   -6.4876    6.5379 H         1 <0>         0.1322
     41 H14         2.3850  -10.7661    3.7572 H         1 <0>         0.1974
     42 H15        -3.8269  -13.6272    5.2217 H         1 <0>         0.2093
     43 H16        -1.8866   -8.7760    4.6476 H         1 <0>         0.4155
     44 H17        -3.2279   -9.1092    5.6028 H         1 <0>         0.4071
@<TRIPOS>BOND
     1    1    2 1
     2    1   28 1
     3    1   29 1
     4    1   30 1
     5    2    7 ar
     6    2    3 ar
     7    3    4 ar
     8    3   31 1
     9    4    5 ar
    10    4   32 1
    11    5    6 ar
    12    5   33 1
    13    6    7 ar
    14    6    8 1
    15    7   34 1
    16    8    9 am
    17    8   35 1
    18    9   10 2
    19    9   11 am
    20   11   12 1
    21   11   36 1
    22   12   17 ar
    23   12   13 ar
    24   13   14 ar
    25   13   37 1
    26   14   15 ar
    27   14   38 1
    28   15   16 ar
    29   15   18 1
    30   16   17 ar
    31   16   39 1
    32   17   40 1
    33   18   22 1
    34   18   19 2
    35   19   20 1
    36   19   41 1
    37   20   21 1
    38   21   26 ar
    39   21   22 ar
    40   22   23 ar
    41   23   24 ar
    42   23   27 1
    43   24   25 ar
    44   25   26 ar
    45   25   42 1
    46   27   43 1
    47   27   44 1
@<TRIPOS>MOLECULE
CHEMBL433936
   46    48     0     0     0
SMALL
USER_CHARGES

@<TRIPOS>ATOM
      1 C1          0.5312    1.0957   -2.8486 C.3       1 <0>         0.0297
      2 O1          0.4723   -0.2748   -2.4484 O.3       1 <0>        -0.3877
      3 C2          1.0814   -1.1772   -3.3740 C.3       1 <0>         0.0583
      4 C3          0.9599   -2.6082   -2.8463 C.3       1 <0>         0.0500
      5 O2         -0.4180   -2.9844   -2.8025 O.3       1 <0>        -0.2694
      6 C4         -0.7021   -4.2352   -2.3538 C.ar      1 <0>         0.2162
      7 C5          0.3154   -5.0594   -1.9670 C.ar      1 <0>        -0.2352
      8 C6          0.0274   -6.3532   -1.5023 C.ar      1 <0>         0.1905
      9 C7         -1.3208   -6.7814   -1.4432 C.ar      1 <0>        -0.1128
     10 C8         -2.3464   -5.9142   -1.8463 C.ar      1 <0>        -0.1530
     11 C9         -2.0363   -4.6603   -2.2886 C.ar      1 <0>         0.1393
     12 O3         -3.0311   -3.8174   -2.6748 O.3       1 <0>        -0.2845
     13 C10        -4.3697   -4.3094   -2.5849 C.3       1 <0>         0.0147
     14 C11        -1.6044   -8.0858   -0.9742 C.ar      1 <0>         0.3438
     15 C12        -0.5375   -8.8849   -0.5931 C.ar      1 <0>        -0.2594
     16 C13         0.7569   -8.3916   -0.6807 C.ar      1 <0>         0.2253
     17 N1          1.0081   -7.1791   -1.1172 N.ar      1 <0>        -0.4973
     18 N2         -2.9097   -8.5505   -0.8977 N.pl3     1 <0>        -0.6214
     19 C14        -3.1756   -9.7976   -0.3217 C.ar      1 <0>         0.1023
     20 C15        -2.5320  -10.1737    0.8492 C.ar      1 <0>        -0.1302
     21 C16        -2.7978  -11.4092    1.4175 C.ar      1 <0>         0.1405
     22 C17        -3.7069  -12.2689    0.8157 C.ar      1 <0>        -0.0371
     23 C18        -4.3482  -11.8940   -0.3509 C.ar      1 <0>        -0.1041
     24 C19        -4.0895  -10.6595   -0.9184 C.ar      1 <0>         0.1033
     25 F1         -4.7208  -10.2931   -2.0552 F         1 <0>        -0.1185
     26 Cl1        -4.0388  -13.8168    1.5283 Cl        1 <0>        -0.0141
     27 O4         -2.1680  -11.7798    2.5641 O.3       1 <0>        -0.4762
     28 H1          1.5728    1.3987   -2.9550 H         1 <0>         0.0462
     29 H2          0.0179    1.2182   -3.8023 H         1 <0>         0.0470
     30 H3          0.0479    1.7158   -2.0935 H         1 <0>         0.0924
     31 H4          0.5795   -1.1019   -4.3387 H         1 <0>         0.0682
     32 H5          2.1344   -0.9214   -3.4914 H         1 <0>         0.0822
     33 H6          1.5008   -3.2861   -3.5065 H         1 <0>         0.0907
     34 H7          1.3834   -2.6627   -1.8434 H         1 <0>         0.0846
     35 H8          1.3386   -4.7177   -2.0185 H         1 <0>         0.1686
     36 H9         -3.3767   -6.2353   -1.8035 H         1 <0>         0.1566
     37 H10        -4.5922   -4.5704   -1.5503 H         1 <0>         0.0646
     38 H11        -5.0633   -3.5394   -2.9225 H         1 <0>         0.1192
     39 H12        -4.4747   -5.1938   -3.2133 H         1 <0>         0.0647
     40 H13        -0.7128   -9.8866   -0.2293 H         1 <0>         0.1833
     41 H14         1.5804   -9.0227   -0.3811 H         1 <0>         0.2093
     42 H15        -3.6378   -8.0109   -1.2435 H         1 <0>         0.4298
     43 H16        -1.8247   -9.5045    1.3164 H         1 <0>         0.1608
     44 H17        -5.0550  -12.5644   -0.8172 H         1 <0>         0.1671
     45 H18        -2.6389  -11.5282    3.3704 H         1 <0>         0.4069
     46 H19         1.9279   -6.8742   -1.1623 H         1 <0>         0.4449
@<TRIPOS>BOND
     1    1    2 1
     2    1   28 1
     3    1   29 1
     4    1   30 1
     5    2    3 1
     6    3    4 1
     7    3   31 1
     8    3   32 1
     9    4    5 1
    10    4   33 1
    11    4   34 1
    12    5    6 1
    13    6   11 ar
    14    6    7 ar
    15    7    8 ar
    16    7   35 1
    17    8   17 ar
    18    8    9 ar
    19    9   10 ar
    20    9   14 ar
    21   10   11 ar
    22   10   36 1
    23   11   12 1
    24   12   13 1
    25   13   37 1
    26   13   38 1
    27   13   39 1
    28   14   15 ar
    29   14   18 1
    30   15   16 ar
    31   15   40 1
    32   16   17 ar
    33   16   41 1
    34   17   46 1
    35   18   19 1
    36   18   42 1
    37   19   24 ar
    38   19   20 ar
    39   20   21 ar
    40   20   43 1
    41   21   22 ar
    42   21   27 1
    43   22   23 ar
    44   22   26 1
    45   23   24 ar
    46   23   44 1
    47   24   25 1
    48   27   45 1
@<TRIPOS>MOLECULE
CHEMBL202441
   56    59     0     0     0
SMALL
USER_CHARGES

@<TRIPOS>ATOM
      1 C1         -0.0178    1.4648    0.0101 C.3       1 <0>        -0.0473
      2 N1          0.0021   -0.0041    0.0020 N.4       1 <0>        -0.3861
      3 C2         -1.3756   -0.5106    0.0035 C.3       1 <0>        -0.0037
      4 C3         -1.3615   -2.0381   -0.0867 C.3       1 <0>        -0.1428
      5 C4         -0.6051   -2.6081    1.1167 C.3       1 <0>        -0.0976
      6 C5          0.8066   -2.0155    1.1472 C.3       1 <0>        -0.1434
      7 C6          0.7122   -0.4888    1.1916 C.3       1 <0>        -0.0065
      8 C7         -0.5183   -4.1305    0.9921 C.3       1 <0>         0.0552
      9 O1          0.0839   -4.6713    2.1698 O.3       1 <0>        -0.2966
     10 C8          0.2362   -6.0200    2.2209 C.ar      1 <0>         0.1573
     11 C9         -0.1774   -6.7851    1.1670 C.ar      1 <0>        -0.1748
     12 C10        -0.0207   -8.1764    1.2174 C.ar      1 <0>         0.1738
     13 C11         0.5667   -8.7710    2.3655 C.ar      1 <0>        -0.1435
     14 C12         0.9823   -7.9609    3.4331 C.ar      1 <0>        -0.1517
     15 C13         0.8215   -6.6079    3.3529 C.ar      1 <0>         0.1206
     16 O2          1.2282   -5.8209    4.3840 O.3       1 <0>        -0.3017
     17 C14         1.8166   -6.4776    5.5085 C.3       1 <0>         0.0186
     18 C15         0.7123  -10.1684    2.3895 C.ar      1 <0>         0.2279
     19 N2          0.2971  -10.8597    1.3464 N.ar      1 <0>        -0.5105
     20 C16        -0.2465  -10.2687    0.2925 C.ar      1 <0>         0.3087
     21 N3         -0.4093   -8.9699    0.2108 N.ar      1 <0>        -0.5081
     22 C17         1.3284  -10.8599    3.5783 C.3       1 <0>        -0.0389
     23 C18         0.2490  -11.2141    4.5685 C.ar      1 <0>        -0.1080
     24 C19        -0.0314  -10.3615    5.6197 C.ar      1 <0>        -0.0804
     25 C20        -1.0215  -10.6854    6.5279 C.ar      1 <0>        -0.1003
     26 C21        -1.7328  -11.8636    6.3863 C.ar      1 <0>        -0.0607
     27 C22        -1.4535  -12.7179    5.3356 C.ar      1 <0>        -0.1258
     28 C23        -0.4658  -12.3907    4.4221 C.ar      1 <0>         0.1274
     29 F1         -0.1956  -13.2220    3.3919 F         1 <0>        -0.1164
     30 Br1        -3.0868  -12.3058    7.6300 Br        1 <0>        -0.0260
     31 H1          1.0047    1.8421    0.0024 H         1 <0>         0.1243
     32 H2         -0.5450    1.8259   -0.8730 H         1 <0>         0.1242
     33 H3         -0.5280    1.8163    0.9069 H         1 <0>         0.1220
     34 H4         -1.8732   -0.2060    0.9241 H         1 <0>         0.1307
     35 H5         -1.9135   -0.1015   -0.8518 H         1 <0>         0.1344
     36 H6         -2.3852   -2.4123   -0.0837 H         1 <0>         0.1173
     37 H7         -0.8642   -2.3438   -1.0072 H         1 <0>         0.0933
     38 H8         -1.1305   -2.3457    2.0350 H         1 <0>         0.1032
     39 H9          1.3327   -2.3735    2.0321 H         1 <0>         0.1211
     40 H10         1.3489   -2.3207    0.2523 H         1 <0>         0.0891
     41 H11         1.7157   -0.0637    1.2136 H         1 <0>         0.1326
     42 H12         0.1701   -0.1847    2.0870 H         1 <0>         0.1300
     43 H13        -1.5203   -4.5431    0.8742 H         1 <0>         0.0780
     44 H14         0.0861   -4.3901    0.1230 H         1 <0>         0.0736
     45 H15        -0.6229   -6.3199    0.3001 H         1 <0>         0.1523
     46 H16         1.4298   -8.4044    4.3103 H         1 <0>         0.1505
     47 H17         2.7047   -7.0219    5.1876 H         1 <0>         0.0618
     48 H18         2.0956   -5.7362    6.2572 H         1 <0>         0.1097
     49 H19         1.0982   -7.1756    5.9385 H         1 <0>         0.0600
     50 H20        -0.5692  -10.8830   -0.5351 H         1 <0>         0.2012
     51 H21         1.8320  -11.7689    3.2491 H         1 <0>         0.1134
     52 H22         2.0512  -10.1950    4.0510 H         1 <0>         0.1042
     53 H23         0.5238   -9.4418    5.7316 H         1 <0>         0.1366
     54 H24        -1.2398  -10.0185    7.3489 H         1 <0>         0.1433
     55 H25        -2.0081  -13.6380    5.2253 H         1 <0>         0.1503
     56 H26         0.4767   -0.3284   -0.8272 H         1 <0>         0.4247
@<TRIPOS>BOND
     1    1    2 1
     2    1   31 1
     3    1   32 1
     4    1   33 1
     5    2    7 1
     6    2    3 1
     7    2   56 1
     8    3    4 1
     9    3   34 1
    10    3   35 1
    11    4    5 1
    12    4   36 1
    13    4   37 1
    14    5    6 1
    15    5    8 1
    16    5   38 1
    17    6    7 1
    18    6   39 1
    19    6   40 1
    20    7   41 1
    21    7   42 1
    22    8    9 1
    23    8   43 1
    24    8   44 1
    25    9   10 1
    26   10   15 ar
    27   10   11 ar
    28   11   12 ar
    29   11   45 1
    30   12   21 ar
    31   12   13 ar
    32   13   14 ar
    33   13   18 ar
    34   14   15 ar
    35   14   46 1
    36   15   16 1
    37   16   17 1
    38   17   47 1
    39   17   48 1
    40   17   49 1
    41   18   19 ar
    42   18   22 1
    43   19   20 ar
    44   20   21 ar
    45   20   50 1
    46   22   23 1
    47   22   51 1
    48   22   52 1
    49   23   28 ar
    50   23   24 ar
    51   24   25 ar
    52   24   53 1
    53   25   26 ar
    54   25   54 1
    55   26   27 ar
    56   26   30 1
    57   27   28 ar
    58   27   55 1
    59   28   29 1
@<TRIPOS>MOLECULE
CHEMBL190161
   84    87     0     0     0
SMALL
USER_CHARGES

@<TRIPOS>ATOM
      1 C1         -0.0187    1.5258    0.0104 C.3       1 <0>        -0.1648
      2 C2          0.0021   -0.0041    0.0020 C.3       1 <0>         0.1878
      3 C3          0.7421   -0.5109    1.2415 C.3       1 <0>        -0.1648
      4 C4         -1.4333   -0.5336    0.0129 C.3       1 <0>        -0.1575
      5 N1          0.6878   -0.4765   -1.2033 N.am      1 <0>        -0.7355
      6 C5          1.9715   -0.1323   -1.4270 C.2       1 <0>         0.6963
      7 O1          2.5604    0.5703   -0.6286 O.2       1 <0>        -0.5190
      8 N2          2.6023   -0.5669   -2.5359 N.am      1 <0>        -0.6655
      9 C6          3.9247   -0.2123   -2.7663 C.ar      1 <0>         0.4536
     10 C7          4.5693   -0.6712   -3.9356 C.ar      1 <0>        -0.1524
     11 C8          5.8881   -0.3212   -4.1717 C.ar      1 <0>         0.0270
     12 C9          6.5368    0.4880   -3.2221 C.ar      1 <0>        -0.2359
     13 C10         7.8708    0.8895   -3.3824 C.ar      1 <0>         0.2235
     14 N3          8.4455    1.6459   -2.4759 N.ar      1 <0>        -0.5405
     15 C11         7.8088    2.0618   -1.3834 C.ar      1 <0>         0.4046
     16 C12         6.4944    1.7182   -1.1375 C.ar      1 <0>        -0.2383
     17 C13         5.8226    0.9111   -2.0693 C.ar      1 <0>         0.2369
     18 N4          4.5491    0.5491   -1.8926 N.ar      1 <0>        -0.4834
     19 N5          8.4837    2.8609   -0.4679 N.pl3     1 <0>        -0.7275
     20 C14         7.7998    3.3283    0.7404 C.3       1 <0>         0.1286
     21 C15         8.7592    4.1828    1.5712 C.3       1 <0>        -0.1285
     22 C16         8.0449    4.6711    2.8331 C.3       1 <0>        -0.1462
     23 C17         9.0043    5.5256    3.6639 C.3       1 <0>        -0.0078
     24 N6          8.3185    5.9943    4.8755 N.4       1 <0>        -0.3869
     25 C18         7.2206    6.8944    4.4990 C.3       1 <0>        -0.0071
     26 C19         6.4940    7.3681    5.7598 C.3       1 <0>         0.0243
     27 N7          7.4447    8.0669    6.6362 N.3       1 <0>        -0.5438
     28 C20         8.5628    7.1856    7.0014 C.3       1 <0>         0.0239
     29 C21         9.2723    6.7134    5.7304 C.3       1 <0>        -0.0019
     30 C22         6.7718    8.5875    7.8338 C.3       1 <0>         0.0193
     31 C23         3.8387   -1.5231   -4.9046 C.ar      1 <0>         0.0356
     32 C24         3.1397   -2.6438   -4.4607 C.ar      1 <0>        -0.1996
     33 C25         2.4582   -3.4378   -5.3688 C.ar      1 <0>         0.1783
     34 C26         2.4715   -3.1183   -6.7187 C.ar      1 <0>        -0.2957
     35 C27         3.1664   -2.0032   -7.1640 C.ar      1 <0>         0.1784
     36 C28         3.8449   -1.2016   -6.2604 C.ar      1 <0>        -0.1737
     37 O2          3.1769   -1.6937   -8.4872 O.3       1 <0>        -0.3099
     38 C29         2.4514   -2.5601   -9.3619 C.3       1 <0>         0.0244
     39 O3          1.7762   -4.5310   -4.9368 O.3       1 <0>        -0.3110
     40 C30         1.0960   -5.3046   -5.9272 C.3       1 <0>         0.0242
     41 H1          1.0039    1.9031    0.0027 H         1 <0>         0.0793
     42 H2         -0.5459    1.8868   -0.8726 H         1 <0>         0.0536
     43 H3         -0.5289    1.8773    0.9072 H         1 <0>         0.0630
     44 H4          0.2319   -0.1594    2.1383 H         1 <0>         0.0629
     45 H5          0.7568   -1.6008    1.2356 H         1 <0>         0.0539
     46 H6          1.7647   -0.1336    1.2338 H         1 <0>         0.0793
     47 H7         -1.9605   -0.1726   -0.8702 H         1 <0>         0.0633
     48 H8         -1.4185   -1.6235    0.0069 H         1 <0>         0.0637
     49 H9         -1.9435   -0.1821    0.9097 H         1 <0>         0.0767
     50 H10         0.2179   -1.0371   -1.8404 H         1 <0>         0.3961
     51 H11         2.1325   -1.1275   -3.1729 H         1 <0>         0.4169
     52 H12         6.4032   -0.6599   -5.0584 H         1 <0>         0.1533
     53 H13         8.4269    0.5757   -4.2534 H         1 <0>         0.1711
     54 H14         5.9925    2.0642   -0.2459 H         1 <0>         0.1384
     55 H15         9.4075    3.1089   -0.6290 H         1 <0>         0.4062
     56 H16         6.9323    3.9254    0.4590 H         1 <0>         0.0681
     57 H17         7.4748    2.4704    1.3290 H         1 <0>         0.0681
     58 H18         9.6266    3.5858    1.8527 H         1 <0>         0.0831
     59 H19         9.0841    5.0408    0.9827 H         1 <0>         0.0833
     60 H20         7.1775    5.2681    2.5517 H         1 <0>         0.0917
     61 H21         7.7200    3.8131    3.4217 H         1 <0>         0.0914
     62 H22         9.8718    4.9285    3.9454 H         1 <0>         0.1328
     63 H23         9.3293    6.3835    3.0754 H         1 <0>         0.1324
     64 H24         7.6234    7.7559    3.9665 H         1 <0>         0.1383
     65 H25         6.5204    6.3635    3.8541 H         1 <0>         0.1375
     66 H26         5.6886    8.0478    5.4817 H         1 <0>         0.1238
     67 H27         6.0793    6.5080    6.2854 H         1 <0>         0.0608
     68 H28         9.2666    7.7322    7.6291 H         1 <0>         0.1239
     69 H29         8.1822    6.3225    7.5475 H         1 <0>         0.0605
     70 H30        10.0932    6.0483    5.9983 H         1 <0>         0.1360
     71 H31         9.6646    7.5759    5.1915 H         1 <0>         0.1379
     72 H32         6.3271    7.7614    8.3887 H         1 <0>         0.0397
     73 H33         7.4981    9.0998    8.4648 H         1 <0>         0.0839
     74 H34         5.9910    9.2875    7.5365 H         1 <0>         0.0845
     75 H35         3.1296   -2.8935   -3.4101 H         1 <0>         0.1343
     76 H36         1.9400   -3.7392   -7.4246 H         1 <0>         0.1388
     77 H37         4.3820   -0.3311   -6.6071 H         1 <0>         0.1379
     78 H38         2.5417   -2.2003  -10.3868 H         1 <0>         0.1060
     79 H39         2.8585   -3.5690   -9.2938 H         1 <0>         0.0580
     80 H40         1.4007   -2.5720   -9.0723 H         1 <0>         0.0575
     81 H41         0.3590   -4.6805   -6.4327 H         1 <0>         0.0580
     82 H42         1.8166   -5.6777   -6.6549 H         1 <0>         0.0582
     83 H43         0.5935   -6.1456   -5.4494 H         1 <0>         0.1057
     84 H44         7.9466    5.2028    5.3787 H         1 <0>         0.4207
@<TRIPOS>BOND
     1    1    2 1
     2    1   41 1
     3    1   42 1
     4    1   43 1
     5    2    3 1
     6    2    4 1
     7    2    5 1
     8    3   44 1
     9    3   45 1
    10    3   46 1
    11    4   47 1
    12    4   48 1
    13    4   49 1
    14    5    6 am
    15    5   50 1
    16    6    7 2
    17    6    8 am
    18    8    9 1
    19    8   51 1
    20    9   18 ar
    21    9   10 ar
    22   10   11 ar
    23   10   31 1
    24   11   12 ar
    25   11   52 1
    26   12   17 ar
    27   12   13 ar
    28   13   14 ar
    29   13   53 1
    30   14   15 ar
    31   15   16 ar
    32   15   19 1
    33   16   17 ar
    34   16   54 1
    35   17   18 ar
    36   19   20 1
    37   19   55 1
    38   20   21 1
    39   20   56 1
    40   20   57 1
    41   21   22 1
    42   21   58 1
    43   21   59 1
    44   22   23 1
    45   22   60 1
    46   22   61 1
    47   23   24 1
    48   23   62 1
    49   23   63 1
    50   24   29 1
    51   24   25 1
    52   24   84 1
    53   25   26 1
    54   25   64 1
    55   25   65 1
    56   26   27 1
    57   26   66 1
    58   26   67 1
    59   27   28 1
    60   27   30 1
    61   28   29 1
    62   28   68 1
    63   28   69 1
    64   29   70 1
    65   29   71 1
    66   30   72 1
    67   30   73 1
    68   30   74 1
    69   31   36 ar
    70   31   32 ar
    71   32   33 ar
    72   32   75 1
    73   33   34 ar
    74   33   39 1
    75   34   35 ar
    76   34   76 1
    77   35   36 ar
    78   35   37 1
    79   36   77 1
    80   37   38 1
    81   38   78 1
    82   38   79 1
    83   38   80 1
    84   39   40 1
    85   40   81 1
    86   40   82 1
    87   40   83 1
@<TRIPOS>MOLECULE
CHEMBL190161__1
   84    87     0     0     0
SMALL
USER_CHARGES

@<TRIPOS>ATOM
      1 C1         -0.0187    1.5258    0.0104 C.3       1 <0>        -0.1648
      2 C2          0.0021   -0.0041    0.0020 C.3       1 <0>         0.1879
      3 C3          0.7421   -0.5109    1.2415 C.3       1 <0>        -0.1651
      4 C4         -1.4333   -0.5336    0.0129 C.3       1 <0>        -0.1570
      5 N1          0.6878   -0.4765   -1.2033 N.am      1 <0>        -0.7361
      6 C5          1.9715   -0.1323   -1.4270 C.2       1 <0>         0.6956
      7 O1          2.5604    0.5703   -0.6286 O.2       1 <0>        -0.5175
      8 N2          2.6023   -0.5669   -2.5359 N.am      1 <0>        -0.6658
      9 C6          3.9247   -0.2123   -2.7663 C.ar      1 <0>         0.4520
     10 C7          4.5693   -0.6712   -3.9356 C.ar      1 <0>        -0.1557
     11 C8          5.8881   -0.3212   -4.1717 C.ar      1 <0>         0.0279
     12 C9          6.5368    0.4880   -3.2221 C.ar      1 <0>        -0.2377
     13 C10         7.8708    0.8895   -3.3824 C.ar      1 <0>         0.2220
     14 N3          8.4455    1.6459   -2.4759 N.ar      1 <0>        -0.5405
     15 C11         7.8088    2.0618   -1.3834 C.ar      1 <0>         0.4066
     16 C12         6.4944    1.7182   -1.1375 C.ar      1 <0>        -0.2396
     17 C13         5.8226    0.9111   -2.0693 C.ar      1 <0>         0.2375
     18 N4          4.5491    0.5491   -1.8926 N.ar      1 <0>        -0.4827
     19 N5          8.4837    2.8609   -0.4679 N.pl3     1 <0>        -0.7252
     20 C14         7.7998    3.3283    0.7404 C.3       1 <0>         0.1288
     21 C15         8.7592    4.1828    1.5712 C.3       1 <0>        -0.1310
     22 C16         8.0449    4.6711    2.8331 C.3       1 <0>        -0.1145
     23 C17         9.0043    5.5256    3.6639 C.3       1 <0>         0.0552
     24 N6          8.3185    5.9943    4.8755 N.3       1 <0>        -0.5397
     25 C18         7.2319    6.9249    4.5390 C.3       1 <0>         0.0199
     26 C19         6.5066    7.3422    5.8202 C.3       1 <0>        -0.0029
     27 N7          7.4592    7.9850    6.7351 N.4       1 <0>        -0.3885
     28 C20         8.5250    7.0355    7.0814 C.3       1 <0>        -0.0025
     29 C21         9.2671    6.6156    5.8106 C.3       1 <0>         0.0249
     30 C22         6.7588    8.4016    7.9573 C.3       1 <0>        -0.0458
     31 C23         3.8387   -1.5231   -4.9046 C.ar      1 <0>         0.0378
     32 C24         3.1397   -2.6438   -4.4607 C.ar      1 <0>        -0.1996
     33 C25         2.4582   -3.4378   -5.3688 C.ar      1 <0>         0.1779
     34 C26         2.4715   -3.1183   -6.7187 C.ar      1 <0>        -0.2964
     35 C27         3.1664   -2.0032   -7.1640 C.ar      1 <0>         0.1779
     36 C28         3.8449   -1.2016   -6.2604 C.ar      1 <0>        -0.1740
     37 O2          3.1769   -1.6937   -8.4872 O.3       1 <0>        -0.3101
     38 C29         2.4514   -2.5601   -9.3619 C.3       1 <0>         0.0246
     39 O3          1.7762   -4.5310   -4.9368 O.3       1 <0>        -0.3111
     40 C30         1.0960   -5.3046   -5.9272 C.3       1 <0>         0.0244
     41 H1          1.0039    1.9031    0.0027 H         1 <0>         0.0799
     42 H2         -0.5459    1.8868   -0.8726 H         1 <0>         0.0531
     43 H3         -0.5289    1.8773    0.9072 H         1 <0>         0.0625
     44 H4          0.2319   -0.1594    2.1383 H         1 <0>         0.0626
     45 H5          0.7568   -1.6008    1.2356 H         1 <0>         0.0537
     46 H6          1.7647   -0.1336    1.2338 H         1 <0>         0.0801
     47 H7         -1.9605   -0.1726   -0.8702 H         1 <0>         0.0629
     48 H8         -1.4185   -1.6235    0.0069 H         1 <0>         0.0635
     49 H9         -1.9435   -0.1821    0.9097 H         1 <0>         0.0763
     50 H10         0.2179   -1.0371   -1.8404 H         1 <0>         0.3956
     51 H11         2.1325   -1.1275   -3.1729 H         1 <0>         0.4163
     52 H12         6.4032   -0.6599   -5.0584 H         1 <0>         0.1523
     53 H13         8.4269    0.5757   -4.2534 H         1 <0>         0.1701
     54 H14         5.9925    2.0642   -0.2459 H         1 <0>         0.1394
     55 H15         9.4075    3.1089   -0.6290 H         1 <0>         0.4054
     56 H16         6.9323    3.9254    0.4590 H         1 <0>         0.0648
     57 H17         7.4748    2.4704    1.3290 H         1 <0>         0.0671
     58 H18         9.6266    3.5858    1.8527 H         1 <0>         0.0753
     59 H19         9.0841    5.0408    0.9827 H         1 <0>         0.0717
     60 H20         7.1775    5.2681    2.5517 H         1 <0>         0.0674
     61 H21         7.7200    3.8131    3.4217 H         1 <0>         0.0812
     62 H22         9.8718    4.9285    3.9454 H         1 <0>         0.0900
     63 H23         9.3293    6.3835    3.0754 H         1 <0>         0.0479
     64 H24         7.6467    7.8075    4.0519 H         1 <0>         0.0606
     65 H25         6.5284    6.4346    3.8661 H         1 <0>         0.1263
     66 H26         5.7093    8.0436    5.5744 H         1 <0>         0.1357
     67 H27         6.0803    6.4611    6.2998 H         1 <0>         0.1380
     68 H28         9.2240    7.5094    7.7705 H         1 <0>         0.1356
     69 H29         8.0884    6.1559    7.5545 H         1 <0>         0.1378
     70 H30        10.0484    5.8996    6.0655 H         1 <0>         0.1236
     71 H31         9.7153    7.4931    5.3445 H         1 <0>         0.0602
     72 H32         6.3226    7.5281    8.4418 H         1 <0>         0.1232
     73 H33         7.4655    8.8786    8.6364 H         1 <0>         0.1241
     74 H34         5.9687    9.1073    7.7007 H         1 <0>         0.1242
     75 H35         3.1296   -2.8935   -3.4101 H         1 <0>         0.1344
     76 H36         1.9400   -3.7392   -7.4246 H         1 <0>         0.1384
     77 H37         4.3820   -0.3311   -6.6071 H         1 <0>         0.1378
     78 H38         2.5417   -2.2003  -10.3868 H         1 <0>         0.1056
     79 H39         2.8585   -3.5690   -9.2938 H         1 <0>         0.0578
     80 H40         1.4007   -2.5720   -9.0723 H         1 <0>         0.0572
     81 H41         0.3590   -4.6805   -6.4327 H         1 <0>         0.0577
     82 H42         1.8166   -5.6777   -6.6549 H         1 <0>         0.0579
     83 H43         0.5935   -6.1456   -5.4494 H         1 <0>         0.1054
     84 H44         7.8624    8.7940    6.2866 H         1 <0>         0.4222
@<TRIPOS>BOND
     1    1    2 1
     2    1   41 1
     3    1   42 1
     4    1   43 1
     5    2    3 1
     6    2    4 1
     7    2    5 1
     8    3   44 1
     9    3   45 1
    10    3   46 1
    11    4   47 1
    12    4   48 1
    13    4   49 1
    14    5    6 am
    15    5   50 1
    16    6    7 2
    17    6    8 am
    18    8    9 1
    19    8   51 1
    20    9   18 ar
    21    9   10 ar
    22   10   11 ar
    23   10   31 1
    24   11   12 ar
    25   11   52 1
    26   12   17 ar
    27   12   13 ar
    28   13   14 ar
    29   13   53 1
    30   14   15 ar
    31   15   16 ar
    32   15   19 1
    33   16   17 ar
    34   16   54 1
    35   17   18 ar
    36   19   20 1
    37   19   55 1
    38   20   21 1
    39   20   56 1
    40   20   57 1
    41   21   22 1
    42   21   58 1
    43   21   59 1
    44   22   23 1
    45   22   60 1
    46   22   61 1
    47   23   24 1
    48   23   62 1
    49   23   63 1
    50   24   29 1
    51   24   25 1
    52   25   26 1
    53   25   64 1
    54   25   65 1
    55   26   27 1
    56   26   66 1
    57   26   67 1
    58   27   28 1
    59   27   30 1
    60   27   84 1
    61   28   29 1
    62   28   68 1
    63   28   69 1
    64   29   70 1
    65   29   71 1
    66   30   72 1
    67   30   73 1
    68   30   74 1
    69   31   36 ar
    70   31   32 ar
    71   32   33 ar
    72   32   75 1
    73   33   34 ar
    74   33   39 1
    75   34   35 ar
    76   34   76 1
    77   35   36 ar
    78   35   37 1
    79   36   77 1
    80   37   38 1
    81   38   78 1
    82   38   79 1
    83   38   80 1
    84   39   40 1
    85   40   81 1
    86   40   82 1
    87   40   83 1
@<TRIPOS>MOLECULE
CHEMBL189059
   80    83     0     0     0
SMALL
USER_CHARGES

@<TRIPOS>ATOM
      1 C1         -0.0187    1.5258    0.0104 C.3       1 <0>        -0.1658
      2 C2          0.0021   -0.0041    0.0020 C.3       1 <0>         0.1876
      3 C3          0.7421   -0.5109    1.2415 C.3       1 <0>        -0.1659
      4 C4         -1.4333   -0.5336    0.0129 C.3       1 <0>        -0.1564
      5 N1          0.6878   -0.4765   -1.2033 N.am      1 <0>        -0.7343
      6 C5          1.9715   -0.1323   -1.4270 C.2       1 <0>         0.6911
      7 O1          2.5604    0.5703   -0.6286 O.2       1 <0>        -0.5066
      8 N2          2.6023   -0.5669   -2.5359 N.am      1 <0>        -0.6627
      9 C6          3.9237   -0.2125   -2.7661 C.ar      1 <0>         0.4775
     10 C7          4.5674   -0.6715   -3.9350 C.ar      1 <0>        -0.1572
     11 C8          5.8870   -0.3194   -4.1691 C.ar      1 <0>         0.0403
     12 C9          6.5312    0.4892   -3.2184 C.ar      1 <0>        -0.2930
     13 C10         7.8677    0.8957   -3.3729 C.ar      1 <0>         0.2654
     14 N3          8.4056    1.6547   -2.4398 N.ar      1 <0>        -0.5722
     15 C11         7.7110    2.0355   -1.3697 C.ar      1 <0>         0.5914
     16 N4          6.4545    1.6839   -1.1733 N.ar      1 <0>        -0.5611
     17 C12         5.8198    0.9133   -2.0655 C.ar      1 <0>         0.4285
     18 N5          4.5480    0.5494   -1.8913 N.ar      1 <0>        -0.4761
     19 N6          8.3317    2.8312   -0.4257 N.pl3     1 <0>        -0.6962
     20 C13         9.7262    3.2387   -0.6138 C.3       1 <0>         0.1390
     21 C14        10.1670    4.1081    0.5655 C.3       1 <0>        -0.1331
     22 C15        11.6235    4.5336    0.3691 C.3       1 <0>         0.0599
     23 N7         12.0467    5.3683    1.5014 N.3       1 <0>        -0.5394
     24 C16        11.3149    6.6428    1.5187 C.3       1 <0>         0.0194
     25 C17        11.7406    7.4553    2.7436 C.3       1 <0>        -0.0028
     26 N8         13.1874    7.7025    2.6886 N.4       1 <0>        -0.3885
     27 C18        13.9055    6.4212    2.6968 C.3       1 <0>        -0.0026
     28 C19        13.4978    5.6000    1.4715 C.3       1 <0>         0.0253
     29 C20        13.5927    8.4980    3.8553 C.3       1 <0>        -0.0458
     30 C21         3.8378   -1.5239   -4.9046 C.ar      1 <0>         0.0359
     31 C22         3.1393   -2.6450   -4.4612 C.ar      1 <0>        -0.1989
     32 C23         2.4583   -3.4391   -5.3696 C.ar      1 <0>         0.1791
     33 C24         2.4713   -3.1189   -6.7193 C.ar      1 <0>        -0.2950
     34 C25         3.1661   -2.0036   -7.1642 C.ar      1 <0>         0.1781
     35 C26         3.8444   -1.2022   -6.2603 C.ar      1 <0>        -0.1732
     36 O2          3.1770   -1.6940   -8.4874 O.3       1 <0>        -0.3101
     37 C27         2.4521   -2.5604   -9.3625 C.3       1 <0>         0.0244
     38 O3          1.7772   -4.5330   -4.9381 O.3       1 <0>        -0.3103
     39 C28         1.0975   -5.3066   -5.9288 C.3       1 <0>         0.0242
     40 H1          1.0039    1.9031    0.0027 H         1 <0>         0.0805
     41 H2         -0.5459    1.8868   -0.8726 H         1 <0>         0.0530
     42 H3         -0.5289    1.8773    0.9072 H         1 <0>         0.0642
     43 H4          0.2319   -0.1594    2.1383 H         1 <0>         0.0641
     44 H5          0.7568   -1.6008    1.2356 H         1 <0>         0.0535
     45 H6          1.7647   -0.1336    1.2338 H         1 <0>         0.0806
     46 H7         -1.9605   -0.1726   -0.8702 H         1 <0>         0.0627
     47 H8         -1.4185   -1.6235    0.0069 H         1 <0>         0.0633
     48 H9         -1.9435   -0.1821    0.9097 H         1 <0>         0.0771
     49 H10         0.2179   -1.0371   -1.8404 H         1 <0>         0.3954
     50 H11         2.1325   -1.1275   -3.1729 H         1 <0>         0.4181
     51 H12         6.4043   -0.6568   -5.0551 H         1 <0>         0.1561
     52 H13         8.4409    0.5926   -4.2367 H         1 <0>         0.1813
     53 H14         7.8440    3.1200    0.3615 H         1 <0>         0.4164
     54 H15        10.3593    2.3531   -0.6689 H         1 <0>         0.0720
     55 H16         9.8168    3.8081   -1.5388 H         1 <0>         0.0688
     56 H17         9.5340    4.9937    0.6206 H         1 <0>         0.0712
     57 H18        10.0765    3.5386    1.4905 H         1 <0>         0.0851
     58 H19        12.2565    3.6480    0.3140 H         1 <0>         0.0940
     59 H20        11.7140    5.1031   -0.5559 H         1 <0>         0.0521
     60 H21        11.5417    7.2048    0.6127 H         1 <0>         0.0618
     61 H22        10.2438    6.4465    1.5669 H         1 <0>         0.1256
     62 H23        11.2094    8.4071    2.7507 H         1 <0>         0.1357
     63 H24        11.5012    6.8990    3.6498 H         1 <0>         0.1378
     64 H25        14.9793    6.6062    2.6692 H         1 <0>         0.1361
     65 H26        13.6550    5.8701    3.6032 H         1 <0>         0.1377
     66 H27        14.0192    4.6429    1.4852 H         1 <0>         0.1246
     67 H28        13.7605    6.1448    0.5647 H         1 <0>         0.0615
     68 H29        13.3514    7.9532    4.7680 H         1 <0>         0.1232
     69 H30        14.6663    8.6815    3.8147 H         1 <0>         0.1243
     70 H31        13.0609    9.4494    3.8487 H         1 <0>         0.1242
     71 H32         3.1291   -2.8950   -3.4106 H         1 <0>         0.1355
     72 H33         1.9396   -3.7395   -7.4254 H         1 <0>         0.1390
     73 H34         4.3815   -0.3315   -6.6067 H         1 <0>         0.1380
     74 H35         1.4013   -2.5726   -9.0732 H         1 <0>         0.0577
     75 H36         2.5427   -2.2004  -10.3873 H         1 <0>         0.1057
     76 H37         2.8594   -3.5692   -9.2944 H         1 <0>         0.0580
     77 H38         0.3600   -4.6829   -6.4340 H         1 <0>         0.0581
     78 H39         1.8184   -5.6788   -6.6568 H         1 <0>         0.0580
     79 H40         0.5957   -6.1483   -5.4514 H         1 <0>         0.1059
     80 H41        13.4104    8.2074    1.8440 H         1 <0>         0.4224
@<TRIPOS>BOND
     1    1    2 1
     2    1   40 1
     3    1   41 1
     4    1   42 1
     5    2    3 1
     6    2    4 1
     7    2    5 1
     8    3   43 1
     9    3   44 1
    10    3   45 1
    11    4   46 1
    12    4   47 1
    13    4   48 1
    14    5    6 am
    15    5   49 1
    16    6    7 2
    17    6    8 am
    18    8    9 1
    19    8   50 1
    20    9   18 ar
    21    9   10 ar
    22   10   11 ar
    23   10   30 1
    24   11   12 ar
    25   11   51 1
    26   12   17 ar
    27   12   13 ar
    28   13   14 ar
    29   13   52 1
    30   14   15 ar
    31   15   16 ar
    32   15   19 1
    33   16   17 ar
    34   17   18 ar
    35   19   20 1
    36   19   53 1
    37   20   21 1
    38   20   54 1
    39   20   55 1
    40   21   22 1
    41   21   56 1
    42   21   57 1
    43   22   23 1
    44   22   58 1
    45   22   59 1
    46   23   28 1
    47   23   24 1
    48   24   25 1
    49   24   60 1
    50   24   61 1
    51   25   26 1
    52   25   62 1
    53   25   63 1
    54   26   27 1
    55   26   29 1
    56   26   80 1
    57   27   28 1
    58   27   64 1
    59   27   65 1
    60   28   66 1
    61   28   67 1
    62   29   68 1
    63   29   69 1
    64   29   70 1
    65   30   35 ar
    66   30   31 ar
    67   31   32 ar
    68   31   71 1
    69   32   33 ar
    70   32   38 1
    71   33   34 ar
    72   33   72 1
    73   34   35 ar
    74   34   36 1
    75   35   73 1
    76   36   37 1
    77   37   74 1
    78   37   75 1
    79   37   76 1
    80   38   39 1
    81   39   77 1
    82   39   78 1
    83   39   79 1
@<TRIPOS>MOLECULE
CHEMBL189059__1
   80    83     0     0     0
SMALL
USER_CHARGES

@<TRIPOS>ATOM
      1 C1         -0.0187    1.5258    0.0104 C.3       1 <0>        -0.1658
      2 C2          0.0021   -0.0041    0.0020 C.3       1 <0>         0.1874
      3 C3          0.7421   -0.5109    1.2415 C.3       1 <0>        -0.1658
      4 C4         -1.4333   -0.5336    0.0129 C.3       1 <0>        -0.1568
      5 N1          0.6878   -0.4765   -1.2033 N.am      1 <0>        -0.7335
      6 C5          1.9715   -0.1323   -1.4270 C.2       1 <0>         0.6914
      7 O1          2.5604    0.5703   -0.6286 O.2       1 <0>        -0.5072
      8 N2          2.6023   -0.5669   -2.5359 N.am      1 <0>        -0.6621
      9 C6          3.9237   -0.2125   -2.7661 C.ar      1 <0>         0.4793
     10 C7          4.5674   -0.6715   -3.9350 C.ar      1 <0>        -0.1519
     11 C8          5.8870   -0.3194   -4.1691 C.ar      1 <0>         0.0384
     12 C9          6.5312    0.4892   -3.2184 C.ar      1 <0>        -0.2896
     13 C10         7.8677    0.8957   -3.3729 C.ar      1 <0>         0.2669
     14 N3          8.4056    1.6547   -2.4398 N.ar      1 <0>        -0.5749
     15 C11         7.7110    2.0355   -1.3697 C.ar      1 <0>         0.5894
     16 N4          6.4545    1.6839   -1.1733 N.ar      1 <0>        -0.5571
     17 C12         5.8198    0.9133   -2.0655 C.ar      1 <0>         0.4275
     18 N5          4.5480    0.5494   -1.8913 N.ar      1 <0>        -0.4758
     19 N6          8.3317    2.8312   -0.4257 N.pl3     1 <0>        -0.7013
     20 C13         9.7262    3.2387   -0.6138 C.3       1 <0>         0.1449
     21 C14        10.1670    4.1081    0.5655 C.3       1 <0>        -0.1661
     22 C15        11.6235    4.5336    0.3691 C.3       1 <0>        -0.0026
     23 N7         12.0467    5.3683    1.5014 N.4       1 <0>        -0.3863
     24 C16        11.2726    6.6166    1.5054 C.3       1 <0>        -0.0076
     25 C17        11.6999    7.4782    2.6956 C.3       1 <0>         0.0245
     26 N8         13.1362    7.7726    2.5930 N.3       1 <0>        -0.5437
     27 C18        13.9226    6.5314    2.5628 C.3       1 <0>         0.0238
     28 C19        13.4769    5.6775    1.3737 C.3       1 <0>        -0.0017
     29 C20        13.5740    8.6467    3.6895 C.3       1 <0>         0.0193
     30 C21         3.8378   -1.5239   -4.9046 C.ar      1 <0>         0.0329
     31 C22         3.1393   -2.6450   -4.4612 C.ar      1 <0>        -0.1989
     32 C23         2.4583   -3.4391   -5.3696 C.ar      1 <0>         0.1796
     33 C24         2.4713   -3.1189   -6.7194 C.ar      1 <0>        -0.2940
     34 C25         3.1661   -2.0036   -7.1642 C.ar      1 <0>         0.1788
     35 C26         3.8444   -1.2022   -6.2603 C.ar      1 <0>        -0.1726
     36 O2          3.1770   -1.6940   -8.4874 O.3       1 <0>        -0.3099
     37 C27         2.4521   -2.5604   -9.3625 C.3       1 <0>         0.0241
     38 O3          1.7772   -4.5330   -4.9381 O.3       1 <0>        -0.3102
     39 C28         1.0975   -5.3066   -5.9288 C.3       1 <0>         0.0239
     40 H1          1.0039    1.9031    0.0027 H         1 <0>         0.0801
     41 H2         -0.5459    1.8868   -0.8726 H         1 <0>         0.0533
     42 H3         -0.5289    1.8773    0.9072 H         1 <0>         0.0647
     43 H4          0.2319   -0.1594    2.1383 H         1 <0>         0.0646
     44 H5          0.7568   -1.6008    1.2356 H         1 <0>         0.0537
     45 H6          1.7647   -0.1336    1.2338 H         1 <0>         0.0801
     46 H7         -1.9605   -0.1726   -0.8702 H         1 <0>         0.0631
     47 H8         -1.4185   -1.6235    0.0069 H         1 <0>         0.0635
     48 H9         -1.9435   -0.1821    0.9097 H         1 <0>         0.0776
     49 H10         0.2179   -1.0371   -1.8404 H         1 <0>         0.3959
     50 H11         2.1325   -1.1275   -3.1729 H         1 <0>         0.4188
     51 H12         6.4043   -0.6568   -5.0551 H         1 <0>         0.1575
     52 H13         8.4409    0.5926   -4.2367 H         1 <0>         0.1828
     53 H14         7.8440    3.1200    0.3615 H         1 <0>         0.4174
     54 H15        10.3593    2.3531   -0.6689 H         1 <0>         0.0784
     55 H16         9.8168    3.8081   -1.5388 H         1 <0>         0.0787
     56 H17         9.5340    4.9937    0.6206 H         1 <0>         0.0953
     57 H18        10.0765    3.5386    1.4905 H         1 <0>         0.0951
     58 H19        12.2565    3.6480    0.3140 H         1 <0>         0.1369
     59 H20        11.7140    5.1031   -0.5559 H         1 <0>         0.1364
     60 H21        11.4556    7.1606    0.5787 H         1 <0>         0.1393
     61 H22        10.2105    6.3852    1.5870 H         1 <0>         0.1368
     62 H23        11.1361    8.4111    2.6903 H         1 <0>         0.1239
     63 H24        11.5043    6.9400    3.6230 H         1 <0>         0.0606
     64 H25        14.9804    6.7734    2.4606 H         1 <0>         0.1243
     65 H26        13.7636    5.9775    3.4881 H         1 <0>         0.0605
     66 H27        14.0492    4.7500    1.3577 H         1 <0>         0.1371
     67 H28        13.6487    6.2263    0.4477 H         1 <0>         0.1389
     68 H29        13.3854    8.1548    4.6437 H         1 <0>         0.0396
     69 H30        14.6404    8.8487    3.5894 H         1 <0>         0.0841
     70 H31        13.0211    9.5852    3.6490 H         1 <0>         0.0845
     71 H32         3.1291   -2.8950   -3.4106 H         1 <0>         0.1354
     72 H33         1.9396   -3.7395   -7.4254 H         1 <0>         0.1396
     73 H34         4.3815   -0.3315   -6.6067 H         1 <0>         0.1382
     74 H35         2.5427   -2.2004  -10.3873 H         1 <0>         0.1063
     75 H36         2.8594   -3.5692   -9.2944 H         1 <0>         0.0582
     76 H37         1.4013   -2.5726   -9.0732 H         1 <0>         0.0580
     77 H38         0.3600   -4.6829   -6.4340 H         1 <0>         0.0585
     78 H39         1.8184   -5.6788   -6.6568 H         1 <0>         0.0583
     79 H40         0.5957   -6.1483   -5.4514 H         1 <0>         0.1064
     80 H41        11.8861    4.8707    2.3643 H         1 <0>         0.4209
@<TRIPOS>BOND
     1    1    2 1
     2    1   40 1
     3    1   41 1
     4    1   42 1
     5    2    3 1
     6    2    4 1
     7    2    5 1
     8    3   43 1
     9    3   44 1
    10    3   45 1
    11    4   46 1
    12    4   47 1
    13    4   48 1
    14    5    6 am
    15    5   49 1
    16    6    7 2
    17    6    8 am
    18    8    9 1
    19    8   50 1
    20    9   18 ar
    21    9   10 ar
    22   10   11 ar
    23   10   30 1
    24   11   12 ar
    25   11   51 1
    26   12   17 ar
    27   12   13 ar
    28   13   14 ar
    29   13   52 1
    30   14   15 ar
    31   15   16 ar
    32   15   19 1
    33   16   17 ar
    34   17   18 ar
    35   19   20 1
    36   19   53 1
    37   20   21 1
    38   20   54 1
    39   20   55 1
    40   21   22 1
    41   21   56 1
    42   21   57 1
    43   22   23 1
    44   22   58 1
    45   22   59 1
    46   23   28 1
    47   23   24 1
    48   23   80 1
    49   24   25 1
    50   24   60 1
    51   24   61 1
    52   25   26 1
    53   25   62 1
    54   25   63 1
    55   26   27 1
    56   26   29 1
    57   27   28 1
    58   27   64 1
    59   27   65 1
    60   28   66 1
    61   28   67 1
    62   29   68 1
    63   29   69 1
    64   29   70 1
    65   30   35 ar
    66   30   31 ar
    67   31   32 ar
    68   31   71 1
    69   32   33 ar
    70   32   38 1
    71   33   34 ar
    72   33   72 1
    73   34   35 ar
    74   34   36 1
    75   35   73 1
    76   36   37 1
    77   37   74 1
    78   37   75 1
    79   37   76 1
    80   38   39 1
    81   39   77 1
    82   39   78 1
    83   39   79 1
@<TRIPOS>MOLECULE
CHEMBL495299
   63    68     0     0     0
SMALL
USER_CHARGES

@<TRIPOS>ATOM
      1 C1         -0.0173    1.4248    0.0099 C.3       1 <0>         0.0238
      2 O1          0.0021   -0.0041    0.0020 O.3       1 <0>        -0.3026
      3 C2         -1.2007   -0.6377    0.0101 C.ar      1 <0>         0.1200
      4 C3         -2.3504    0.0968    0.0193 C.ar      1 <0>        -0.1588
      5 C4         -3.5930   -0.5577    0.0272 C.ar      1 <0>        -0.0725
      6 C5         -4.7996    0.1659    0.0363 C.ar      1 <0>        -0.0178
      7 C6         -5.9724   -0.5352    0.0432 C.ar      1 <0>        -0.1763
      8 C7         -5.9500   -1.9276    0.0413 C.ar      1 <0>         0.1279
      9 N1         -4.8239   -2.5994    0.0328 N.ar      1 <0>        -0.4719
     10 C8         -3.6416   -1.9747    0.0256 C.ar      1 <0>         0.1390
     11 C9         -2.4396   -2.7021    0.0164 C.ar      1 <0>        -0.1753
     12 C10        -1.2465   -2.0400    0.0030 C.ar      1 <0>         0.1408
     13 O2         -0.0871   -2.7484   -0.0115 O.3       1 <0>        -0.3017
     14 C11        -0.1973   -4.1731   -0.0181 C.3       1 <0>         0.0222
     15 C12        -4.7986    1.6729    0.0387 C.3       1 <0>         0.0892
     16 N2         -4.5666    2.1646   -1.3259 N.3       1 <0>        -0.5261
     17 C13        -4.3448    3.6194   -1.3317 C.3       1 <0>         0.0475
     18 C14        -3.7567    4.0145   -2.6866 C.3       1 <0>        -0.0825
     19 C15        -4.5929    3.4360   -3.7988 C.ar      1 <0>         0.0020
     20 C16        -5.4843    2.4119   -3.5764 C.ar      1 <0>        -0.0852
     21 C17        -6.2304    1.9048   -4.6320 C.ar      1 <0>        -0.0793
     22 C18        -6.0911    2.4209   -5.9061 C.ar      1 <0>        -0.1262
     23 C19        -5.2039    3.4505   -6.1408 C.ar      1 <0>        -0.0831
     24 C20        -4.4483    3.9639   -5.0872 C.ar      1 <0>        -0.1417
     25 C21        -3.4945    5.0662   -5.3308 C.2       1 <0>         0.5571
     26 O3         -2.8359    5.5142   -4.4127 O.2       1 <0>        -0.4558
     27 N3         -3.3549    5.5748   -6.5711 N.am      1 <0>        -0.6159
     28 C22        -2.4615    6.6073   -6.7994 C.2       1 <0>         0.3750
     29 N4         -1.6672    7.2124   -5.9470 N.2       1 <0>        -0.5050
     30 C23        -0.8390    8.2146   -6.3124 C.ar      1 <0>         0.1020
     31 C24         0.0596    8.9448   -5.5003 C.ar      1 <0>        -0.0653
     32 C25         0.8349    9.9405   -6.0342 C.ar      1 <0>        -0.1055
     33 C26         0.7688   10.2677   -7.3810 C.ar      1 <0>        -0.1008
     34 C27        -0.0989    9.5743   -8.2045 C.ar      1 <0>        -0.0618
     35 C28        -0.8795    8.5753   -7.6786 C.ar      1 <0>        -0.1484
     36 S1         -2.0903    7.4505   -8.3309 S.3       1 <0>         0.0021
     37 C29        -5.6864    1.8181   -2.2067 C.3       1 <0>         0.0940
     38 H1          1.0053    1.8021    0.0021 H         1 <0>         0.1035
     39 H2         -0.5445    1.7859   -0.8732 H         1 <0>         0.0604
     40 H3         -0.5275    1.7763    0.9067 H         1 <0>         0.0560
     41 H4         -2.3052    1.1759    0.0210 H         1 <0>         0.1477
     42 H5         -6.9160   -0.0099    0.0506 H         1 <0>         0.1338
     43 H6         -6.8848   -2.4684    0.0472 H         1 <0>         0.1586
     44 H7         -2.4599   -3.7820    0.0150 H         1 <0>         0.1491
     45 H8          0.7992   -4.6146   -0.0296 H         1 <0>         0.1047
     46 H9         -0.7294   -4.5005    0.8751 H         1 <0>         0.0594
     47 H10        -0.7458   -4.4910   -0.9048 H         1 <0>         0.0592
     48 H11        -5.7617    2.0363    0.3971 H         1 <0>         0.0551
     49 H12        -4.0068    2.0346    0.6947 H         1 <0>         0.0925
     50 H13        -5.2930    4.1351   -1.1796 H         1 <0>         0.0434
     51 H14        -3.6476    3.8868   -0.5377 H         1 <0>         0.0845
     52 H15        -3.7427    5.1011   -2.7721 H         1 <0>         0.1093
     53 H16        -2.7383    3.6338   -2.7640 H         1 <0>         0.0918
     54 H17        -6.9266    1.0983   -4.4553 H         1 <0>         0.1303
     55 H18        -6.6776    2.0180   -6.7187 H         1 <0>         0.1343
     56 H19        -5.0944    3.8566   -7.1356 H         1 <0>         0.1261
     57 H20        -3.8804    5.2173   -7.3039 H         1 <0>         0.4274
     58 H21         0.1352    8.7154   -4.4476 H         1 <0>         0.1343
     59 H22         1.5128   10.4831   -5.3920 H         1 <0>         0.1355
     60 H23         1.3884   11.0563   -7.7818 H         1 <0>         0.1399
     61 H24        -0.1622    9.8174   -9.2549 H         1 <0>         0.1343
     62 H25        -5.7549    0.7335   -2.2915 H         1 <0>         0.0922
     63 H26        -6.6122    2.2041   -1.7803 H         1 <0>         0.0536
@<TRIPOS>BOND
     1    1    2 1
     2    1   38 1
     3    1   39 1
     4    1   40 1
     5    2    3 1
     6    3   12 ar
     7    3    4 ar
     8    4    5 ar
     9    4   41 1
    10    5   10 ar
    11    5    6 ar
    12    6    7 ar
    13    6   15 1
    14    7    8 ar
    15    7   42 1
    16    8    9 ar
    17    8   43 1
    18    9   10 ar
    19   10   11 ar
    20   11   12 ar
    21   11   44 1
    22   12   13 1
    23   13   14 1
    24   14   45 1
    25   14   46 1
    26   14   47 1
    27   15   16 1
    28   15   48 1
    29   15   49 1
    30   16   37 1
    31   16   17 1
    32   17   18 1
    33   17   50 1
    34   17   51 1
    35   18   19 1
    36   18   52 1
    37   18   53 1
    38   19   24 ar
    39   19   20 ar
    40   20   21 ar
    41   20   37 1
    42   21   22 ar
    43   21   54 1
    44   22   23 ar
    45   22   55 1
    46   23   24 ar
    47   23   56 1
    48   24   25 1
    49   25   26 2
    50   25   27 am
    51   27   28 1
    52   27   57 1
    53   28   36 1
    54   28   29 2
    55   29   30 1
    56   30   35 ar
    57   30   31 ar
    58   31   32 ar
    59   31   58 1
    60   32   33 ar
    61   32   59 1
    62   33   34 ar
    63   33   60 1
    64   34   35 ar
    65   34   61 1
    66   35   36 1
    67   37   62 1
    68   37   63 1
@<TRIPOS>MOLECULE
CHEMBL189995
   81    84     0     0     0
SMALL
USER_CHARGES

@<TRIPOS>ATOM
      1 C1         -0.0187    1.5258    0.0104 C.3       1 <0>        -0.1651
      2 C2          0.0021   -0.0041    0.0020 C.3       1 <0>         0.1878
      3 C3          0.7421   -0.5109    1.2415 C.3       1 <0>        -0.1649
      4 C4         -1.4333   -0.5336    0.0129 C.3       1 <0>        -0.1571
      5 N1          0.6878   -0.4765   -1.2033 N.am      1 <0>        -0.7356
      6 C5          1.9715   -0.1323   -1.4270 C.2       1 <0>         0.6956
      7 O1          2.5604    0.5703   -0.6286 O.2       1 <0>        -0.5175
      8 N2          2.6023   -0.5669   -2.5359 N.am      1 <0>        -0.6657
      9 C6          3.9247   -0.2123   -2.7663 C.ar      1 <0>         0.4529
     10 C7          4.5693   -0.6712   -3.9356 C.ar      1 <0>        -0.1540
     11 C8          5.8881   -0.3212   -4.1717 C.ar      1 <0>         0.0271
     12 C9          6.5368    0.4880   -3.2221 C.ar      1 <0>        -0.2368
     13 C10         7.8708    0.8895   -3.3824 C.ar      1 <0>         0.2222
     14 N3          8.4455    1.6459   -2.4759 N.ar      1 <0>        -0.5407
     15 C11         7.8088    2.0618   -1.3834 C.ar      1 <0>         0.4054
     16 C12         6.4944    1.7182   -1.1375 C.ar      1 <0>        -0.2384
     17 C13         5.8226    0.9111   -2.0693 C.ar      1 <0>         0.2373
     18 N4          4.5491    0.5491   -1.8926 N.ar      1 <0>        -0.4828
     19 N5          8.4837    2.8609   -0.4679 N.pl3     1 <0>        -0.7252
     20 C14         7.7998    3.3283    0.7404 C.3       1 <0>         0.1284
     21 C15         8.7592    4.1828    1.5712 C.3       1 <0>        -0.1288
     22 C16         8.0449    4.6711    2.8331 C.3       1 <0>         0.0578
     23 N6          8.9661    5.4915    3.6308 N.3       1 <0>        -0.5389
     24 C17        10.0746    4.6809    4.1544 C.3       1 <0>         0.0193
     25 C18        11.0406    5.5816    4.9273 C.3       1 <0>        -0.0025
     26 N7         10.3245    6.2342    6.0313 N.4       1 <0>        -0.3886
     27 C19         9.2360    7.0594    5.4913 C.3       1 <0>        -0.0024
     28 C20         8.2551    6.1709    4.7230 C.3       1 <0>         0.0249
     29 C21        11.2562    7.0847    6.7840 C.3       1 <0>        -0.0458
     30 C22         3.8387   -1.5231   -4.9046 C.ar      1 <0>         0.0368
     31 C23         3.1397   -2.6438   -4.4607 C.ar      1 <0>        -0.1996
     32 C24         2.4582   -3.4378   -5.3688 C.ar      1 <0>         0.1780
     33 C25         2.4715   -3.1183   -6.7187 C.ar      1 <0>        -0.2960
     34 C26         3.1664   -2.0032   -7.1640 C.ar      1 <0>         0.1781
     35 C27         3.8449   -1.2016   -6.2604 C.ar      1 <0>        -0.1737
     36 O2          3.1769   -1.6937   -8.4872 O.3       1 <0>        -0.3100
     37 C28         2.4514   -2.5601   -9.3619 C.3       1 <0>         0.0245
     38 O3          1.7762   -4.5310   -4.9368 O.3       1 <0>        -0.3111
     39 C29         1.0960   -5.3046   -5.9272 C.3       1 <0>         0.0244
     40 H1          1.0039    1.9031    0.0027 H         1 <0>         0.0798
     41 H2         -0.5459    1.8868   -0.8726 H         1 <0>         0.0534
     42 H3         -0.5289    1.8773    0.9072 H         1 <0>         0.0632
     43 H4          0.2319   -0.1594    2.1383 H         1 <0>         0.0630
     44 H5          0.7568   -1.6008    1.2356 H         1 <0>         0.0535
     45 H6          1.7647   -0.1336    1.2338 H         1 <0>         0.0797
     46 H7         -1.9605   -0.1726   -0.8702 H         1 <0>         0.0631
     47 H8         -1.4185   -1.6235    0.0069 H         1 <0>         0.0634
     48 H9         -1.9435   -0.1821    0.9097 H         1 <0>         0.0766
     49 H10         0.2179   -1.0371   -1.8404 H         1 <0>         0.3957
     50 H11         2.1325   -1.1275   -3.1729 H         1 <0>         0.4165
     51 H12         6.4032   -0.6599   -5.0584 H         1 <0>         0.1527
     52 H13         8.4269    0.5757   -4.2534 H         1 <0>         0.1704
     53 H14         5.9925    2.0642   -0.2459 H         1 <0>         0.1393
     54 H15         9.4075    3.1089   -0.6290 H         1 <0>         0.4052
     55 H16         6.9323    3.9254    0.4590 H         1 <0>         0.0690
     56 H17         7.4748    2.4704    1.3290 H         1 <0>         0.0657
     57 H18         9.6266    3.5858    1.8527 H         1 <0>         0.0712
     58 H19         9.0841    5.0408    0.9827 H         1 <0>         0.0850
     59 H20         7.1775    5.2681    2.5517 H         1 <0>         0.0941
     60 H21         7.7200    3.8131    3.4217 H         1 <0>         0.0522
     61 H22         9.6809    3.9134    4.8207 H         1 <0>         0.0618
     62 H23        10.6023    4.2080    3.3260 H         1 <0>         0.1253
     63 H24        11.8561    4.9799    5.3285 H         1 <0>         0.1357
     64 H25        11.4445    6.3405    4.2573 H         1 <0>         0.1376
     65 H26         8.7137    7.5533    6.3106 H         1 <0>         0.1362
     66 H27         9.6492    7.8108    4.8184 H         1 <0>         0.1377
     67 H28         7.4552    6.7852    4.3096 H         1 <0>         0.1247
     68 H29         7.8313    5.4280    5.3987 H         1 <0>         0.0617
     69 H30        11.6716    7.8438    6.1211 H         1 <0>         0.1231
     70 H31        10.7250    7.5690    7.6033 H         1 <0>         0.1243
     71 H32        12.0634    6.4723    7.1859 H         1 <0>         0.1242
     72 H33         3.1296   -2.8935   -3.4101 H         1 <0>         0.1344
     73 H34         1.9400   -3.7392   -7.4246 H         1 <0>         0.1386
     74 H35         4.3820   -0.3311   -6.6071 H         1 <0>         0.1379
     75 H36         2.8585   -3.5690   -9.2938 H         1 <0>         0.0578
     76 H37         1.4007   -2.5720   -9.0723 H         1 <0>         0.0574
     77 H38         2.5417   -2.2003  -10.3868 H         1 <0>         0.1058
     78 H39         0.3590   -4.6805   -6.4327 H         1 <0>         0.0578
     79 H40         1.8166   -5.6777   -6.6549 H         1 <0>         0.0580
     80 H41         0.5935   -6.1456   -5.4494 H         1 <0>         0.1055
     81 H42         9.9407    5.5312    6.6451 H         1 <0>         0.4226
@<TRIPOS>BOND
     1    1    2 1
     2    1   40 1
     3    1   41 1
     4    1   42 1
     5    2    3 1
     6    2    4 1
     7    2    5 1
     8    3   43 1
     9    3   44 1
    10    3   45 1
    11    4   46 1
    12    4   47 1
    13    4   48 1
    14    5    6 am
    15    5   49 1
    16    6    7 2
    17    6    8 am
    18    8    9 1
    19    8   50 1
    20    9   18 ar
    21    9   10 ar
    22   10   11 ar
    23   10   30 1
    24   11   12 ar
    25   11   51 1
    26   12   17 ar
    27   12   13 ar
    28   13   14 ar
    29   13   52 1
    30   14   15 ar
    31   15   16 ar
    32   15   19 1
    33   16   17 ar
    34   16   53 1
    35   17   18 ar
    36   19   20 1
    37   19   54 1
    38   20   21 1
    39   20   55 1
    40   20   56 1
    41   21   22 1
    42   21   57 1
    43   21   58 1
    44   22   23 1
    45   22   59 1
    46   22   60 1
    47   23   28 1
    48   23   24 1
    49   24   25 1
    50   24   61 1
    51   24   62 1
    52   25   26 1
    53   25   63 1
    54   25   64 1
    55   26   27 1
    56   26   29 1
    57   26   81 1
    58   27   28 1
    59   27   65 1
    60   27   66 1
    61   28   67 1
    62   28   68 1
    63   29   69 1
    64   29   70 1
    65   29   71 1
    66   30   35 ar
    67   30   31 ar
    68   31   32 ar
    69   31   72 1
    70   32   33 ar
    71   32   38 1
    72   33   34 ar
    73   33   73 1
    74   34   35 ar
    75   34   36 1
    76   35   74 1
    77   36   37 1
    78   37   75 1
    79   37   76 1
    80   37   77 1
    81   38   39 1
    82   39   78 1
    83   39   79 1
    84   39   80 1
@<TRIPOS>MOLECULE
CHEMBL189995__1
   81    84     0     0     0
SMALL
USER_CHARGES

@<TRIPOS>ATOM
      1 C1         -0.0187    1.5258    0.0104 C.3       1 <0>        -0.1648
      2 C2          0.0021   -0.0041    0.0020 C.3       1 <0>         0.1876
      3 C3          0.7421   -0.5109    1.2415 C.3       1 <0>        -0.1648
      4 C4         -1.4333   -0.5336    0.0129 C.3       1 <0>        -0.1576
      5 N1          0.6878   -0.4765   -1.2033 N.am      1 <0>        -0.7349
      6 C5          1.9715   -0.1323   -1.4270 C.2       1 <0>         0.6964
      7 O1          2.5604    0.5703   -0.6286 O.2       1 <0>        -0.5190
      8 N2          2.6023   -0.5669   -2.5359 N.am      1 <0>        -0.6653
      9 C6          3.9247   -0.2123   -2.7663 C.ar      1 <0>         0.4550
     10 C7          4.5693   -0.6712   -3.9356 C.ar      1 <0>        -0.1492
     11 C8          5.8881   -0.3212   -4.1717 C.ar      1 <0>         0.0258
     12 C9          6.5368    0.4880   -3.2221 C.ar      1 <0>        -0.2340
     13 C10         7.8708    0.8895   -3.3824 C.ar      1 <0>         0.2242
     14 N3          8.4455    1.6459   -2.4759 N.ar      1 <0>        -0.5405
     15 C11         7.8088    2.0618   -1.3834 C.ar      1 <0>         0.4023
     16 C12         6.4944    1.7182   -1.1375 C.ar      1 <0>        -0.2357
     17 C13         5.8226    0.9111   -2.0693 C.ar      1 <0>         0.2365
     18 N4          4.5491    0.5491   -1.8926 N.ar      1 <0>        -0.4832
     19 N5          8.4837    2.8609   -0.4679 N.pl3     1 <0>        -0.7294
     20 C14         7.7998    3.3283    0.7404 C.3       1 <0>         0.1341
     21 C15         8.7592    4.1828    1.5712 C.3       1 <0>        -0.1617
     22 C16         8.0449    4.6711    2.8331 C.3       1 <0>        -0.0047
     23 N6          8.9661    5.4915    3.6308 N.4       1 <0>        -0.3859
     24 C17        10.0760    4.6566    4.1089 C.3       1 <0>        -0.0075
     25 C18        11.0457    5.5149    4.9242 C.3       1 <0>         0.0248
     26 N7         10.3311    6.1090    6.0628 N.3       1 <0>        -0.5437
     27 C19         9.2016    6.9279    5.6004 C.3       1 <0>         0.0240
     28 C20         8.2471    6.0580    4.7796 C.3       1 <0>        -0.0021
     29 C21        11.2427    6.8964    6.9036 C.3       1 <0>         0.0193
     30 C22         3.8387   -1.5231   -4.9046 C.ar      1 <0>         0.0338
     31 C23         3.1397   -2.6438   -4.4607 C.ar      1 <0>        -0.1994
     32 C24         2.4582   -3.4378   -5.3688 C.ar      1 <0>         0.1787
     33 C25         2.4715   -3.1183   -6.7187 C.ar      1 <0>        -0.2951
     34 C26         3.1664   -2.0032   -7.1640 C.ar      1 <0>         0.1787
     35 C27         3.8449   -1.2016   -6.2604 C.ar      1 <0>        -0.1734
     36 O2          3.1769   -1.6937   -8.4872 O.3       1 <0>        -0.3098
     37 C28         2.4514   -2.5601   -9.3619 C.3       1 <0>         0.0242
     38 O3          1.7762   -4.5310   -4.9368 O.3       1 <0>        -0.3108
     39 C29         1.0960   -5.3046   -5.9272 C.3       1 <0>         0.0241
     40 H1          1.0039    1.9031    0.0027 H         1 <0>         0.0791
     41 H2         -0.5459    1.8868   -0.8726 H         1 <0>         0.0535
     42 H3         -0.5289    1.8773    0.9072 H         1 <0>         0.0636
     43 H4          0.2319   -0.1594    2.1383 H         1 <0>         0.0636
     44 H5          0.7568   -1.6008    1.2356 H         1 <0>         0.0539
     45 H6          1.7647   -0.1336    1.2338 H         1 <0>         0.0791
     46 H7         -1.9605   -0.1726   -0.8702 H         1 <0>         0.0633
     47 H8         -1.4185   -1.6235    0.0069 H         1 <0>         0.0638
     48 H9         -1.9435   -0.1821    0.9097 H         1 <0>         0.0772
     49 H10         0.2179   -1.0371   -1.8404 H         1 <0>         0.3962
     50 H11         2.1325   -1.1275   -3.1729 H         1 <0>         0.4173
     51 H12         6.4032   -0.6599   -5.0584 H         1 <0>         0.1539
     52 H13         8.4269    0.5757   -4.2534 H         1 <0>         0.1718
     53 H14         5.9925    2.0642   -0.2459 H         1 <0>         0.1390
     54 H15         9.4075    3.1089   -0.6290 H         1 <0>         0.4064
     55 H16         6.9323    3.9254    0.4590 H         1 <0>         0.0754
     56 H17         7.4748    2.4704    1.3290 H         1 <0>         0.0756
     57 H18         9.6266    3.5858    1.8527 H         1 <0>         0.0954
     58 H19         9.0841    5.0408    0.9827 H         1 <0>         0.0951
     59 H20         7.1775    5.2681    2.5517 H         1 <0>         0.1371
     60 H21         7.7200    3.8131    3.4217 H         1 <0>         0.1365
     61 H22         9.6842    3.8557    4.7360 H         1 <0>         0.1393
     62 H23        10.6007    4.2264    3.2558 H         1 <0>         0.1365
     63 H24        11.8616    4.8925    5.2916 H         1 <0>         0.1238
     64 H25        11.4481    6.3077    4.2936 H         1 <0>         0.0604
     65 H26         8.6722    7.3364    6.4612 H         1 <0>         0.1244
     66 H27         9.5736    7.7440    4.9810 H         1 <0>         0.0605
     67 H28         7.4159    6.6667    4.4237 H         1 <0>         0.1372
     68 H29         7.8647    5.2499    5.4033 H         1 <0>         0.1391
     69 H30        11.6830    7.6979    6.3105 H         1 <0>         0.0396
     70 H31        10.6882    7.3247    7.7386 H         1 <0>         0.0842
     71 H32        12.0335    6.2507    7.2857 H         1 <0>         0.0845
     72 H33         3.1296   -2.8935   -3.4101 H         1 <0>         0.1345
     73 H34         1.9400   -3.7392   -7.4246 H         1 <0>         0.1391
     74 H35         4.3820   -0.3311   -6.6071 H         1 <0>         0.1379
     75 H36         2.5417   -2.2003  -10.3868 H         1 <0>         0.1062
     76 H37         2.8585   -3.5690   -9.2938 H         1 <0>         0.0582
     77 H38         1.4007   -2.5720   -9.0723 H         1 <0>         0.0577
     78 H39         0.3590   -4.6805   -6.4327 H         1 <0>         0.0581
     79 H40         1.8166   -5.6777   -6.6549 H         1 <0>         0.0583
     80 H41         0.5935   -6.1456   -5.4494 H         1 <0>         0.1060
     81 H42         9.3302    6.2396    3.0600 H         1 <0>         0.4207
@<TRIPOS>BOND
     1    1    2 1
     2    1   40 1
     3    1   41 1
     4    1   42 1
     5    2    3 1
     6    2    4 1
     7    2    5 1
     8    3   43 1
     9    3   44 1
    10    3   45 1
    11    4   46 1
    12    4   47 1
    13    4   48 1
    14    5    6 am
    15    5   49 1
    16    6    7 2
    17    6    8 am
    18    8    9 1
    19    8   50 1
    20    9   18 ar
    21    9   10 ar
    22   10   11 ar
    23   10   30 1
    24   11   12 ar
    25   11   51 1
    26   12   17 ar
    27   12   13 ar
    28   13   14 ar
    29   13   52 1
    30   14   15 ar
    31   15   16 ar
    32   15   19 1
    33   16   17 ar
    34   16   53 1
    35   17   18 ar
    36   19   20 1
    37   19   54 1
    38   20   21 1
    39   20   55 1
    40   20   56 1
    41   21   22 1
    42   21   57 1
    43   21   58 1
    44   22   23 1
    45   22   59 1
    46   22   60 1
    47   23   28 1
    48   23   24 1
    49   23   81 1
    50   24   25 1
    51   24   61 1
    52   24   62 1
    53   25   26 1
    54   25   63 1
    55   25   64 1
    56   26   27 1
    57   26   29 1
    58   27   28 1
    59   27   65 1
    60   27   66 1
    61   28   67 1
    62   28   68 1
    63   29   69 1
    64   29   70 1
    65   29   71 1
    66   30   35 ar
    67   30   31 ar
    68   31   32 ar
    69   31   72 1
    70   32   33 ar
    71   32   38 1
    72   33   34 ar
    73   33   73 1
    74   34   35 ar
    75   34   36 1
    76   35   74 1
    77   36   37 1
    78   37   75 1
    79   37   76 1
    80   37   77 1
    81   38   39 1
    82   39   78 1
    83   39   79 1
    84   39   80 1
@<TRIPOS>MOLECULE
CHEMBL382729
   57    60     0     0     0
SMALL
USER_CHARGES

@<TRIPOS>ATOM
      1 C1          0.0789    1.2278    0.9858 C.3       1 <0>         0.0307
      2 O1          0.0973   -0.1958    0.8635 O.3       1 <0>        -0.3849
      3 C2          0.8152   -0.8594    1.9058 C.3       1 <0>         0.0626
      4 C3          0.7691   -2.3711    1.6743 C.3       1 <0>         0.0529
      5 O2          1.4696   -2.6902    0.4703 O.3       1 <0>        -0.2844
      6 C4          1.5235   -4.0007    0.1170 C.ar      1 <0>         0.1694
      7 C5          0.9157   -4.9368    0.9049 C.ar      1 <0>        -0.1815
      8 C6          0.9708   -6.2898    0.5409 C.ar      1 <0>         0.1932
      9 C7          1.6590   -6.6655   -0.6432 C.ar      1 <0>        -0.1503
     10 C8          2.2721   -5.6876   -1.4313 C.ar      1 <0>        -0.1661
     11 C9          2.1980   -4.3748   -1.0558 C.ar      1 <0>         0.1326
     12 O3          2.7889   -3.4221   -1.8238 O.3       1 <0>        -0.2928
     13 C10         3.4600   -3.8652   -3.0050 C.3       1 <0>         0.0213
     14 C11         1.6973   -8.0419   -0.9858 C.ar      1 <0>         0.3547
     15 N1          1.0859   -8.9058   -0.1783 N.ar      1 <0>        -0.5128
     16 C12         0.4590   -8.5044    0.9126 C.ar      1 <0>         0.3203
     17 N2          0.3916   -7.2448    1.2782 N.ar      1 <0>        -0.5066
     18 N3          2.3399   -8.4665   -2.1076 N.2       1 <0>        -0.3728
     19 C13         3.6208   -8.7038   -2.0744 C.2       1 <0>         0.1736
     20 C14         4.4108   -9.0495   -3.3264 C.3       1 <0>        -0.1162
     21 C15         5.6271   -8.1484   -3.3440 C.2       1 <0>         0.3749
     22 C16         6.3463   -7.8783   -2.0868 C.2       1 <0>         0.0839
     23 C17         5.7672   -8.1042   -0.8800 C.2       1 <0>        -0.1129
     24 C18         4.4031   -8.6470   -0.8087 C.2       1 <0>         0.3826
     25 O4          3.9345   -9.0371    0.2440 O.2       1 <0>        -0.3635
     26 Cl1         6.6363   -7.7464    0.5796 Cl        1 <0>         0.0068
     27 O5          7.6102   -7.3957   -2.1361 O.3       1 <0>        -0.2935
     28 C19         8.6120   -8.2553   -2.6834 C.3       1 <0>         0.1038
     29 C20         9.9203   -7.5121   -2.7676 C.ar      1 <0>        -0.0727
     30 C21        10.2351   -6.7941   -3.9065 C.ar      1 <0>        -0.1004
     31 C22        11.4347   -6.1119   -3.9852 C.ar      1 <0>        -0.0923
     32 C23        12.3212   -6.1471   -2.9253 C.ar      1 <0>        -0.1388
     33 C24        12.0071   -6.8657   -1.7845 C.ar      1 <0>         0.0964
     34 C25        10.8023   -7.5437   -1.7044 C.ar      1 <0>        -0.1260
     35 F1         12.8730   -6.9012   -0.7481 F         1 <0>        -0.1359
     36 O6          6.0064   -7.6535   -4.3837 O.2       1 <0>        -0.3854
     37 H1          1.1004    1.6075    0.9649 H         1 <0>         0.0438
     38 H2         -0.4850    1.6563    0.1572 H         1 <0>         0.0886
     39 H3         -0.3927    1.5055    1.9284 H         1 <0>         0.0427
     40 H4          1.8520   -0.5230    1.9040 H         1 <0>         0.0642
     41 H5          0.3588   -0.6251    2.8675 H         1 <0>         0.0763
     42 H6          1.2394   -2.8819    2.5145 H         1 <0>         0.0859
     43 H7         -0.2684   -2.6939    1.5875 H         1 <0>         0.0797
     44 H8          0.3962   -4.6366    1.8029 H         1 <0>         0.1592
     45 H9          2.7971   -5.9663   -2.3330 H         1 <0>         0.1430
     46 H10         3.8863   -3.0069   -3.5243 H         1 <0>         0.1104
     47 H11         4.2567   -4.5573   -2.7323 H         1 <0>         0.0550
     48 H12         2.7489   -4.3694   -3.6594 H         1 <0>         0.0608
     49 H13        -0.0211   -9.2468    1.5329 H         1 <0>         0.2043
     50 H14         4.7219  -10.0937   -3.2935 H         1 <0>         0.1549
     51 H15         8.7310   -9.1288   -2.0423 H         1 <0>         0.0811
     52 H16         8.3109   -8.5751   -3.6810 H         1 <0>         0.0801
     53 H17         9.5434   -6.7666   -4.7355 H         1 <0>         0.1352
     54 H18        11.6796   -5.5514   -4.8753 H         1 <0>         0.1389
     55 H19        13.2587   -5.6146   -2.9873 H         1 <0>         0.1396
     56 H20        10.5542   -8.1010   -0.8131 H         1 <0>         0.1389
     57 H21         3.8011   -8.8710   -4.2121 H         1 <0>         0.1476
@<TRIPOS>BOND
     1    1    2 1
     2    1   37 1
     3    1   38 1
     4    1   39 1
     5    2    3 1
     6    3    4 1
     7    3   40 1
     8    3   41 1
     9    4    5 1
    10    4   42 1
    11    4   43 1
    12    5    6 1
    13    6   11 ar
    14    6    7 ar
    15    7    8 ar
    16    7   44 1
    17    8   17 ar
    18    8    9 ar
    19    9   10 ar
    20    9   14 ar
    21   10   11 ar
    22   10   45 1
    23   11   12 1
    24   12   13 1
    25   13   46 1
    26   13   47 1
    27   13   48 1
    28   14   15 ar
    29   14   18 1
    30   15   16 ar
    31   16   17 ar
    32   16   49 1
    33   18   19 2
    34   19   24 1
    35   19   20 1
    36   20   50 1
    37   20   57 1
    38   20   21 1
    39   21   36 2
    40   21   22 1
    41   22   27 1
    42   22   23 2
    43   23   24 1
    44   23   26 1
    45   24   25 2
    46   27   28 1
    47   28   29 1
    48   28   51 1
    49   28   52 1
    50   29   34 ar
    51   29   30 ar
    52   30   31 ar
    53   30   53 1
    54   31   32 ar
    55   31   54 1
    56   32   33 ar
    57   32   55 1
    58   33   34 ar
    59   33   35 1
    60   34   56 1
@<TRIPOS>MOLECULE
CHEMBL271849
   62    68     0     0     0
SMALL
USER_CHARGES

@<TRIPOS>ATOM
      1 C1          2.2402   -2.3935   -3.8682 C.3       1 <0>        -0.1676
      2 C2          1.1472   -1.4366   -3.3881 C.3       1 <0>        -0.1152
      3 C3         -0.2193   -2.1093   -3.5328 C.3       1 <0>        -0.1481
      4 C4          1.3884   -1.0826   -1.9193 C.3       1 <0>         0.0941
      5 N1          2.6893   -0.4228   -1.7833 N.pl3     1 <0>        -0.4873
      6 C5          2.9002    0.9220   -1.9125 C.ar      1 <0>         0.1707
      7 C6          2.0101    1.9627   -2.1903 C.ar      1 <0>        -0.1426
      8 C7          2.5241    3.2315   -2.2568 C.ar      1 <0>        -0.0343
      9 C8          3.8818    3.4972   -2.0581 C.ar      1 <0>        -0.1839
     10 C9          4.7935    2.4699   -1.7795 C.ar      1 <0>        -0.0223
     11 C10         4.2769    1.1816   -1.7111 C.ar      1 <0>        -0.1098
     12 C11         4.9124   -0.1126   -1.4458 C.ar      1 <0>        -0.0948
     13 C12         3.8791   -1.0714   -1.4997 C.ar      1 <0>         0.1847
     14 C13         4.1648   -2.4143   -1.2662 C.ar      1 <0>        -0.1124
     15 C14         5.4791   -2.7991   -1.0205 C.ar      1 <0>         0.1279
     16 C15         6.5102   -1.8476   -0.9445 C.ar      1 <0>        -0.1921
     17 C16         6.2130   -0.5033   -1.1705 C.ar      1 <0>        -0.0186
     18 C17         7.5115    0.2511   -1.0295 C.3       1 <0>         0.1377
     19 N2          8.5372   -0.7545   -0.7293 N.am      1 <0>        -0.7200
     20 C18         7.9508   -1.9621   -0.6700 C.2       1 <0>         0.5765
     21 O1          8.5317   -3.0046   -0.4365 O.2       1 <0>        -0.5315
     22 C19         5.7512   -4.2477   -0.8918 C.2       1 <0>        -0.2428
     23 C20         6.8295   -4.9253   -0.4462 C.2       1 <0>         0.1054
     24 N3          6.5381   -6.2436   -0.5242 N.pl3     1 <0>        -0.3859
     25 N4          5.2393   -6.3795   -1.0408 N.2       1 <0>        -0.2888
     26 C21         4.7640   -5.1996   -1.2719 C.2       1 <0>         0.0937
     27 C22         3.4414   -4.7651   -1.8488 C.3       1 <0>        -0.0347
     28 C23         3.0437   -3.4169   -1.2537 C.3       1 <0>        -0.0992
     29 C24         7.4257   -7.3424   -0.1356 C.3       1 <0>         0.1027
     30 C25         4.3658    4.8892   -2.1439 C.2       1 <0>         0.4556
     31 O2          3.8547    5.6636   -2.9310 O.2       1 <0>        -0.4533
     32 C26         5.4662    5.3401   -1.2777 C.2       1 <0>        -0.2110
     33 C27         6.0671    6.6428   -1.4351 C.2       1 <0>        -0.1081
     34 C28         7.0656    6.9347   -0.5784 C.2       1 <0>        -0.2115
     35 S1          7.1839    5.4664    0.4203 S.3       1 <0>         0.1894
     36 C29         5.9687    4.5406   -0.2733 C.2       1 <0>        -0.2007
     37 H1          3.2184   -1.9820   -3.6196 H         1 <0>         0.0616
     38 H2          2.1175   -3.3599   -3.3791 H         1 <0>         0.0705
     39 H3          2.1632   -2.5205   -4.9481 H         1 <0>         0.0605
     40 H4          1.1702   -0.5277   -3.9894 H         1 <0>         0.0792
     41 H5         -0.2424   -3.0182   -2.9315 H         1 <0>         0.0602
     42 H6         -0.9980   -1.4275   -3.1908 H         1 <0>         0.0594
     43 H7         -0.3912   -2.3615   -4.5792 H         1 <0>         0.0650
     44 H8          0.6025   -0.4111   -1.5736 H         1 <0>         0.0935
     45 H9          1.3782   -1.9929   -1.3198 H         1 <0>         0.1086
     46 H10         0.9582    1.7746   -2.3468 H         1 <0>         0.1385
     47 H11         1.8574    4.0539   -2.4704 H         1 <0>         0.1335
     48 H12         5.8438    2.6692   -1.6261 H         1 <0>         0.1419
     49 H13         7.7504    0.7637   -1.9613 H         1 <0>         0.1020
     50 H14         7.4408    0.9698   -0.2131 H         1 <0>         0.1003
     51 H15         9.4793   -0.5755   -0.5835 H         1 <0>         0.4277
     52 H16         7.7545   -4.4944   -0.0925 H         1 <0>         0.2196
     53 H17         3.5301   -4.6724   -2.9312 H         1 <0>         0.0898
     54 H18         2.6794   -5.5068   -1.6092 H         1 <0>         0.0903
     55 H19         2.7212   -3.5696   -0.2237 H         1 <0>         0.0795
     56 H20         2.2070   -3.0146   -1.8247 H         1 <0>         0.1067
     57 H21         7.2633   -7.5868    0.9141 H         1 <0>         0.0751
     58 H22         7.2114   -8.2171   -0.7497 H         1 <0>         0.0890
     59 H23         8.4629   -7.0409   -0.2822 H         1 <0>         0.0903
     60 H24         5.7376    7.3395   -2.1918 H         1 <0>         0.1498
     61 H25         7.6520    7.8394   -0.5139 H         1 <0>         0.1903
     62 H26         5.6535    3.5451    0.0027 H         1 <0>         0.1955
@<TRIPOS>BOND
     1    1    2 1
     2    1   37 1
     3    1   38 1
     4    1   39 1
     5    2    3 1
     6    2    4 1
     7    2   40 1
     8    3   41 1
     9    3   42 1
    10    3   43 1
    11    4    5 1
    12    4   44 1
    13    4   45 1
    14    5   13 1
    15    5    6 1
    16    6   11 ar
    17    6    7 ar
    18    7    8 ar
    19    7   46 1
    20    8    9 ar
    21    8   47 1
    22    9   10 ar
    23    9   30 1
    24   10   11 ar
    25   10   48 1
    26   11   12 1
    27   12   17 ar
    28   12   13 ar
    29   13   14 ar
    30   14   28 1
    31   14   15 ar
    32   15   16 ar
    33   15   22 1
    34   16   20 1
    35   16   17 ar
    36   17   18 1
    37   18   19 1
    38   18   49 1
    39   18   50 1
    40   19   20 am
    41   19   51 1
    42   20   21 2
    43   22   26 1
    44   22   23 2
    45   23   24 1
    46   23   52 1
    47   24   25 1
    48   24   29 1
    49   25   26 2
    50   26   27 1
    51   27   28 1
    52   27   53 1
    53   27   54 1
    54   28   55 1
    55   28   56 1
    56   29   57 1
    57   29   58 1
    58   29   59 1
    59   30   31 2
    60   30   32 1
    61   32   36 2
    62   32   33 1
    63   33   34 2
    64   33   60 1
    65   34   35 1
    66   34   61 1
    67   35   36 1
    68   36   62 1
