@<TRIPOS>MOLECULE
2P2I-608
 50 53 0 0 0
SMALL
SF_CHARGES


@<TRIPOS>ATOM
1    C        39.0830   38.0740   10.2210  C.2        1 SUBUNIT     -0.1035
2    C        38.4520   36.8620   10.6480  C.2        1 SUBUNIT     -0.1052
3    C        37.5400   36.9260   11.7810  C.2        1 SUBUNIT      0.1223
4    C        37.2160   38.1350   12.5220  C.2        1 SUBUNIT     -0.1052
5    C        37.8490   39.3560   12.0980  C.2        1 SUBUNIT     -0.1035
6    C        38.7700   39.2990   10.9530  C.2        1 SUBUNIT      0.1590
7    C        39.9550   29.0860   11.2910  C.2        1 SUBUNIT      0.1803
8    N        40.3640   27.9400   11.9980  N.2        1 SUBUNIT     -0.4903
9    C        39.4910   30.1940   12.0660  C.2        1 SUBUNIT     -0.1185
10   C        39.5020   29.9880   13.5080  C.2        1 SUBUNIT     -0.0414
11   C        39.9310   28.7730   14.1930  C.2        1 SUBUNIT     -0.1185
12   C        40.3810   27.7150   13.3640  C.2        1 SUBUNIT      0.1803
13   C        36.6970   33.5070   12.7930  C.2        1 SUBUNIT     -0.0650
14   C        35.3090   33.5010   12.3840  C.2        1 SUBUNIT     -0.1025
15   C        34.4750   32.3620   12.5770  C.2        1 SUBUNIT     -0.1171
16   C        35.0560   31.2070   13.1990  C.2        1 SUBUNIT      0.1768
17   N        36.3690   31.2060   13.5950  N.2        1 SUBUNIT     -0.5117
18   C        37.1910   32.3220   13.4080  C.2        1 SUBUNIT      0.3905
19   N        38.4940   32.2980   13.8100  N.pl3      1 SUBUNIT     -0.5644
20   C        39.0620   31.1190   14.4470  C.3        1 SUBUNIT      0.1837
21   C        37.5690   34.6710   12.5260  C.2        1 SUBUNIT      0.6668
22   N        36.9230   35.8070   12.2220  N.am       1 SUBUNIT     -0.5313
23   O        38.7950   34.6450   12.5520  O.2        1 SUBUNIT     -0.5451
24   O        39.4620   40.4250   10.4230  O.3        1 SUBUNIT     -0.3417
25   C        39.1060   43.8750   11.8670  C.2        1 SUBUNIT     -0.1007
26   C        38.3180   44.4460   10.7820  C.2        1 SUBUNIT     -0.1006
27   C        37.8980   43.7040    9.5990  C.2        1 SUBUNIT     -0.1007
28   C        38.2810   42.3120    9.4800  C.2        1 SUBUNIT     -0.1184
29   C        39.0680   41.7400   10.5530  C.2        1 SUBUNIT      0.1483
30   C        39.4850   42.4880   11.7400  C.2        1 SUBUNIT     -0.1184
31   H        39.7635   38.0719    9.3875  H          1 SUBUNIT      0.1070
32   H        38.6518   35.9346   10.1403  H          1 SUBUNIT      0.1068
33   H        36.5325   38.1227   13.3530  H          1 SUBUNIT      0.1068
34   H        37.6466   40.2794   12.6119  H          1 SUBUNIT      0.1070
35   H        39.9928   29.1189   10.2162  H          1 SUBUNIT      0.0762
36   H        39.1596   31.1097   11.6083  H          1 SUBUNIT      0.1038
37   H        39.9124   28.6716   15.2640  H          1 SUBUNIT      0.1038
38   H        40.7220   26.7769   13.7658  H          1 SUBUNIT      0.0762
39   H        34.8878   34.3762   11.9210  H          1 SUBUNIT      0.1032
40   H        33.4451   32.3713   12.2657  H          1 SUBUNIT      0.1033
41   H        34.4731   30.3183   13.3673  H          1 SUBUNIT      0.0757
42   H        39.0465   33.1256   13.6494  H          1 SUBUNIT      0.3188
43   H        38.3021   30.7270   15.1310  H          1 SUBUNIT      0.0261
44   H        39.9328   31.4530   15.0207  H          1 SUBUNIT      0.0261
45   H        35.9209   35.8233   12.3298  H          1 SUBUNIT      0.3177
46   H        39.3944   44.4564   12.7252  H          1 SUBUNIT      0.1067
47   H        38.0283   45.4794   10.8589  H          1 SUBUNIT      0.1066
48   H        37.3154   44.1777    8.8283  H          1 SUBUNIT      0.1067
49   H        37.9916   41.7247    8.6261  H          1 SUBUNIT      0.1086
50   H        40.0670   42.0163   12.5124  H          1 SUBUNIT      0.1086
@<TRIPOS>BOND
     1    1    2 2
     2    1    6 1
     3    2    3 1
     4    3    4 2
     5    3   22 1
     6    4    5 1
     7    5    6 2
     8    6   24 1
     9    7    8 2
    10    7    9 1
    11    8   12 1
    12    9   10 2
    13   10   11 1
    14   10   20 1
    15   11   12 2
    16   13   14 1
    17   13   18 2
    18   13   21 1
    19   14   15 2
    20   15   16 1
    21   16   17 2
    22   17   18 1
    23   18   19 1
    24   19   20 1
    25   21   22 1
    26   21   23 2
    27   24   29 1
    28   25   26 2
    29   25   30 1
    30   26   27 1
    31   27   28 2
    32   28   29 1
    33   29   30 2
    34    1   31 1
    35    2   32 1
    36    4   33 1
    37    5   34 1
    38    7   35 1
    39    9   36 1
    40   11   37 1
    41   12   38 1
    42   14   39 1
    43   15   40 1
    44   16   41 1
    45   19   42 1
    46   20   43 1
    47   20   44 1
    48   22   45 1
    49   25   46 1
    50   26   47 1
    51   27   48 1
    52   28   49 1
    53   30   50 1
