@<TRIPOS>MOLECULE
CHEMBL484473
   53    56     0     0     0
SMALL
USER_CHARGES

@<TRIPOS>ATOM
      1 C1         -0.0184    1.5028    0.0103 C.3       1 <0>        -0.0761
      2 C2          0.0021   -0.0041    0.0020 C.2       1 <0>         0.1312
      3 C3          0.0084   -0.8571   -1.1815 C.ar      1 <0>        -0.2765
      4 C4         -0.0013   -0.6272   -2.5579 C.ar      1 <0>         0.2427
      5 N1          0.0083   -1.6391   -3.3990 N.ar      1 <0>        -0.5566
      6 C5          0.0278   -2.9028   -2.9879 C.ar      1 <0>         0.4356
      7 C6          0.0386   -3.2209   -1.6403 C.ar      1 <0>        -0.2738
      8 C7          0.0291   -2.1881   -0.7076 C.ar      1 <0>         0.2040
      9 N2          0.0346   -2.1207    0.6590 N.pl3     1 <0>        -0.3504
     10 N3          0.0230   -0.7772    1.0506 N.2       1 <0>        -0.2487
     11 C8          0.0533   -3.2195    1.5264 C.ar      1 <0>         0.1766
     12 C9          0.7428   -3.1443    2.7300 C.ar      1 <0>        -0.1105
     13 C10         0.7593   -4.2293    3.5841 C.ar      1 <0>        -0.0273
     14 C11         0.0907   -5.3906    3.2426 C.ar      1 <0>        -0.1150
     15 C12        -0.5973   -5.4693    2.0444 C.ar      1 <0>        -0.0082
     16 C13        -0.6221   -4.3844    1.1880 C.ar      1 <0>        -0.1456
     17 Cl1        -1.4347   -6.9293    1.6194 Cl        1 <0>        -0.0666
     18 C14         1.5073   -4.1478    4.8898 C.3       1 <0>        -0.0606
     19 C15         0.5714   -3.6264    5.9821 C.3       1 <0>        -0.1764
     20 C16         1.3194   -3.5450    7.2878 C.2       1 <0>         0.4910
     21 O1          2.4924   -3.8735    7.3399 O.co2     1 <0>        -0.6977
     22 O2          0.7516   -3.1505    8.2921 O.co2     1 <0>        -0.7034
     23 N4          0.0371   -3.9264   -3.9304 N.pl3     1 <0>        -0.7138
     24 C17         0.0586   -5.3245   -3.4932 C.3       1 <0>         0.1913
     25 H1          0.6539   -5.4118   -2.5843 H         1 <0>         0.0919
     26 C18        -1.3707   -5.7934   -3.2137 C.3       1 <0>        -0.1648
     27 C19         0.6654   -6.1800   -4.5753 C.ar      1 <0>        -0.0904
     28 C20         0.3668   -5.9313   -5.9019 C.ar      1 <0>        -0.1117
     29 C21         0.9235   -6.7160   -6.8945 C.ar      1 <0>        -0.1167
     30 C22         1.7790   -7.7492   -6.5605 C.ar      1 <0>        -0.1188
     31 C23         2.0782   -7.9973   -5.2340 C.ar      1 <0>        -0.1154
     32 C24         1.5250   -7.2099   -4.2416 C.ar      1 <0>        -0.1063
     33 H2          1.0042    1.8801    0.0026 H         1 <0>         0.0870
     34 H3         -0.5455    1.8639   -0.8728 H         1 <0>         0.0842
     35 H4         -0.5286    1.8543    0.9071 H         1 <0>         0.0826
     36 H5         -0.0171    0.3850   -2.9342 H         1 <0>         0.1665
     37 H6          0.0537   -4.2518   -1.3189 H         1 <0>         0.1364
     38 H7          1.2659   -2.2381    2.9974 H         1 <0>         0.1389
     39 H8          0.1059   -6.2380    3.9120 H         1 <0>         0.1404
     40 H9         -1.1625   -4.4444    0.2548 H         1 <0>         0.1350
     41 H10         1.8689   -5.1389    5.1639 H         1 <0>         0.0787
     42 H11         2.3535   -3.4693    4.7821 H         1 <0>         0.0774
     43 H12         0.2098   -2.6353    5.7081 H         1 <0>         0.0594
     44 H13        -0.2748   -4.3050    6.0899 H         1 <0>         0.0593
     45 H14         0.0294   -3.7143   -4.8769 H         1 <0>         0.4055
     46 H15        -1.9660   -5.7061   -4.1226 H         1 <0>         0.0624
     47 H16        -1.3548   -6.8336   -2.8884 H         1 <0>         0.0708
     48 H17        -1.8096   -5.1747   -2.4310 H         1 <0>         0.0652
     49 H18        -0.3015   -5.1241   -6.1628 H         1 <0>         0.1210
     50 H19         0.6897   -6.5221   -7.9309 H         1 <0>         0.1233
     51 H20         2.2133   -8.3627   -7.3360 H         1 <0>         0.1224
     52 H21         2.7463   -8.8048   -4.9730 H         1 <0>         0.1248
     53 H22         1.7617   -7.4014   -3.2054 H         1 <0>         0.1258
@<TRIPOS>BOND
     1    1    2 1
     2    1   33 1
     3    1   34 1
     4    1   35 1
     5    2   10 2
     6    2    3 1
     7    3    8 ar
     8    3    4 ar
     9    4    5 ar
    10    4   36 1
    11    5    6 ar
    12    6    7 ar
    13    6   23 1
    14    7    8 ar
    15    7   37 1
    16    8    9 1
    17    9   10 1
    18    9   11 1
    19   11   16 ar
    20   11   12 ar
    21   12   13 ar
    22   12   38 1
    23   13   14 ar
    24   13   18 1
    25   14   15 ar
    26   14   39 1
    27   15   16 ar
    28   15   17 1
    29   16   40 1
    30   18   19 1
    31   18   41 1
    32   18   42 1
    33   19   20 1
    34   19   43 1
    35   19   44 1
    36   20   21 2
    37   20   22 1
    38   23   24 1
    39   23   45 1
    40   24   25 1
    41   24   26 1
    42   24   27 1
    43   26   46 1
    44   26   47 1
    45   26   48 1
    46   27   32 ar
    47   27   28 ar
    48   28   29 ar
    49   28   49 1
    50   29   30 ar
    51   29   50 1
    52   30   31 ar
    53   30   51 1
    54   31   32 ar
    55   31   52 1
    56   32   53 1
@<TRIPOS>MOLECULE
CHEMBL520080
   54    57     0     0     0
SMALL
USER_CHARGES

@<TRIPOS>ATOM
      1 C1         -0.0173    1.4248    0.0099 C.3       1 <0>         0.0223
      2 O1          0.0021   -0.0041    0.0020 O.3       1 <0>        -0.2999
      3 C2          0.6265   -0.6190    1.0426 C.ar      1 <0>         0.1122
      4 C3          1.1980    0.1384    2.0439 C.ar      1 <0>        -0.1253
      5 C4          1.8391   -0.4938    3.1132 C.ar      1 <0>         0.0599
      6 C5          1.8949   -1.8967    3.1571 C.ar      1 <0>         0.0547
      7 C6          1.3163   -2.6480    2.1441 C.ar      1 <0>        -0.1733
      8 C7          0.6802   -2.0130    1.0939 C.ar      1 <0>         0.1400
      9 O2          0.1086   -2.7495    0.1035 O.3       1 <0>        -0.2950
     10 C8          0.1996   -4.1711    0.2173 C.3       1 <0>         0.0214
     11 N1          2.5821   -2.2150    4.3165 N.pl3     1 <0>        -0.4128
     12 C9          2.9138   -1.0393    4.9245 C.2       1 <0>         0.2743
     13 N2          2.4794   -0.0354    4.2209 N.2       1 <0>        -0.4668
     14 C10         2.8790   -3.4948    4.7757 C.2       1 <0>         0.1163
     15 C11         4.0805   -3.9976    5.1968 C.2       1 <0>        -0.2313
     16 C12         4.1496   -5.3039    5.6145 C.2       1 <0>         0.1993
     17 C13         2.9832   -6.0665    5.5909 C.2       1 <0>        -0.2784
     18 S1          1.7879   -4.8936    4.9721 S.3       1 <0>         0.1399
     19 C14         2.7945   -7.4160    5.9647 C.2       1 <0>         0.6114
     20 O3          3.7357   -8.0716    6.3752 O.2       1 <0>        -0.5159
     21 N3          1.5734   -7.9779    5.8671 N.am      1 <0>        -0.8539
     22 O4          5.3233   -5.8386    6.0387 O.3       1 <0>        -0.2644
     23 C15         6.4675   -4.9825    6.0287 C.3       1 <0>         0.0529
     24 C16         7.6868   -5.7549    6.5362 C.3       1 <0>        -0.0832
     25 C17         7.4767   -6.1325    8.0039 C.3       1 <0>        -0.1142
     26 C18         8.6960   -6.9049    8.5114 C.3       1 <0>        -0.1201
     27 C19         9.9440   -6.0289    8.3838 C.3       1 <0>        -0.1219
     28 C20        10.1541   -5.6513    6.9161 C.3       1 <0>        -0.1180
     29 C21         8.9347   -4.8789    6.4086 C.3       1 <0>        -0.1122
     30 H1          1.0053    1.8021    0.0021 H         1 <0>         0.0585
     31 H2         -0.5445    1.7859   -0.8732 H         1 <0>         0.1047
     32 H3         -0.5275    1.7763    0.9067 H         1 <0>         0.0586
     33 H4          1.1506    1.2165    2.0017 H         1 <0>         0.1505
     34 H5          1.3597   -3.7266    2.1780 H         1 <0>         0.1403
     35 H6         -0.2848   -4.4936    1.1389 H         1 <0>         0.0580
     36 H7         -0.2952   -4.6362   -0.6353 H         1 <0>         0.1068
     37 H8          1.2483   -4.4678    0.2350 H         1 <0>         0.0572
     38 H9          3.4572   -0.9548    5.8540 H         1 <0>         0.2225
     39 H10         4.9629   -3.3750    5.2002 H         1 <0>         0.1582
     40 H11         0.8240   -7.4559    5.5403 H         1 <0>         0.3970
     41 H12         1.4439   -8.9043    6.1238 H         1 <0>         0.4098
     42 H13         6.6537   -4.6369    5.0119 H         1 <0>         0.0660
     43 H14         6.2853   -4.1249    6.6763 H         1 <0>         0.0667
     44 H15         7.8161   -6.6602    5.9430 H         1 <0>         0.0848
     45 H16         7.3474   -5.2272    8.5971 H         1 <0>         0.0599
     46 H17         6.5877   -6.7566    8.0948 H         1 <0>         0.0738
     47 H18         8.5464   -7.1739    9.5570 H         1 <0>         0.0631
     48 H19         8.8254   -7.8102    7.9182 H         1 <0>         0.0631
     49 H20         9.8146   -5.1236    8.9769 H         1 <0>         0.0614
     50 H21        10.8126   -6.5792    8.7453 H         1 <0>         0.0622
     51 H22        11.0431   -5.0273    6.8251 H         1 <0>         0.0648
     52 H23        10.2834   -6.5566    6.3229 H         1 <0>         0.0639
     53 H24         9.0844   -4.6099    5.3630 H         1 <0>         0.0646
     54 H25         8.8054   -3.9736    7.0017 H         1 <0>         0.0655
@<TRIPOS>BOND
     1    1    2 1
     2    1   30 1
     3    1   31 1
     4    1   32 1
     5    2    3 1
     6    3    8 ar
     7    3    4 ar
     8    4    5 ar
     9    4   33 1
    10    5   13 1
    11    5    6 ar
    12    6    7 ar
    13    6   11 1
    14    7    8 ar
    15    7   34 1
    16    8    9 1
    17    9   10 1
    18   10   35 1
    19   10   36 1
    20   10   37 1
    21   11   12 1
    22   11   14 1
    23   12   13 2
    24   12   38 1
    25   14   18 1
    26   14   15 2
    27   15   16 1
    28   15   39 1
    29   16   17 2
    30   16   22 1
    31   17   18 1
    32   17   19 1
    33   19   20 2
    34   19   21 am
    35   21   40 1
    36   21   41 1
    37   22   23 1
    38   23   24 1
    39   23   42 1
    40   23   43 1
    41   24   29 1
    42   24   25 1
    43   24   44 1
    44   25   26 1
    45   25   45 1
    46   25   46 1
    47   26   27 1
    48   26   47 1
    49   26   48 1
    50   27   28 1
    51   27   49 1
    52   27   50 1
    53   28   29 1
    54   28   51 1
    55   28   52 1
    56   29   53 1
    57   29   54 1
@<TRIPOS>MOLECULE
CHEMBL480382
   45    48     0     0     0
SMALL
USER_CHARGES

@<TRIPOS>ATOM
      1 C1         -0.0173    1.4248    0.0099 C.3       1 <0>         0.0222
      2 O1          0.0021   -0.0041    0.0020 O.3       1 <0>        -0.2998
      3 C2         -1.2015   -0.6381    0.0101 C.ar      1 <0>         0.1124
      4 C3         -2.3661    0.1012    0.0194 C.ar      1 <0>        -0.1253
      5 C4         -3.6027   -0.5507    0.0273 C.ar      1 <0>         0.0602
      6 C5         -3.6468   -1.9546    0.0256 C.ar      1 <0>         0.0545
      7 C6         -2.4686   -2.6876    0.0161 C.ar      1 <0>        -0.1734
      8 C7         -1.2512   -2.0332    0.0031 C.ar      1 <0>         0.1402
      9 O2         -0.0963   -2.7517   -0.0113 O.3       1 <0>        -0.2950
     10 C8         -0.2182   -4.1755   -0.0179 C.3       1 <0>         0.0213
     11 N1         -4.9894   -2.2941    0.0346 N.pl3     1 <0>        -0.4131
     12 C9         -5.7000   -1.1293    0.0413 C.2       1 <0>         0.2745
     13 N2         -4.8891   -0.1123    0.0371 N.2       1 <0>        -0.4665
     14 C10        -5.5155   -3.5826    0.0365 C.2       1 <0>         0.1177
     15 C11        -6.4727   -4.1169    0.8562 C.2       1 <0>        -0.2334
     16 C12        -6.8486   -5.4259    0.6811 C.2       1 <0>         0.1968
     17 C13        -6.2334   -6.1589   -0.3323 C.2       1 <0>        -0.2738
     18 S1         -5.1185   -4.9542   -1.0343 S.3       1 <0>         0.1458
     19 C14        -6.4419   -7.5045   -0.7095 C.2       1 <0>         0.6099
     20 O3         -7.2575   -8.1850   -0.1129 O.2       1 <0>        -0.5136
     21 N3         -5.7384   -8.0353   -1.7292 N.am      1 <0>        -0.8534
     22 O4         -7.7943   -5.9914    1.4745 O.3       1 <0>        -0.2628
     23 C15        -8.3707   -5.1643    2.4873 C.3       1 <0>         0.1396
     24 C16        -9.3919   -5.9567    3.2620 C.2       1 <0>        -0.1684
     25 C17        -9.2229   -6.7059    4.3790 C.2       1 <0>        -0.1190
     26 C18       -10.3162   -7.3524    4.9242 C.2       1 <0>        -0.1652
     27 C19       -11.5251   -7.2181    4.3260 C.2       1 <0>        -0.1582
     28 S2        -11.1397   -6.1460    2.9514 S.3       1 <0>         0.0645
     29 H1          1.0053    1.8021    0.0021 H         1 <0>         0.1048
     30 H2         -0.5445    1.7859   -0.8732 H         1 <0>         0.0587
     31 H3         -0.5275    1.7763    0.9067 H         1 <0>         0.0586
     32 H4         -2.3227    1.1803    0.0210 H         1 <0>         0.1506
     33 H5         -2.5028   -3.7670    0.0152 H         1 <0>         0.1404
     34 H6         -0.7692   -4.4889   -0.9045 H         1 <0>         0.0580
     35 H7          0.7747   -4.6250   -0.0294 H         1 <0>         0.1068
     36 H8         -0.7529   -4.4985    0.8753 H         1 <0>         0.0573
     37 H9         -6.7778   -1.0617    0.0488 H         1 <0>         0.2231
     38 H10        -6.9263   -3.5166    1.6309 H         1 <0>         0.1595
     39 H11        -5.0890   -7.4935   -2.2042 H         1 <0>         0.3970
     40 H12        -5.8815   -8.9591   -1.9882 H         1 <0>         0.4102
     41 H13        -7.5885   -4.8199    3.1638 H         1 <0>         0.0897
     42 H14        -8.8539   -4.3046    2.0229 H         1 <0>         0.0828
     43 H15        -8.2485   -6.7966    4.8358 H         1 <0>         0.1355
     44 H16       -10.2088   -7.9558    5.8135 H         1 <0>         0.1384
     45 H17       -12.4755   -7.6455    4.6095 H         1 <0>         0.1899
@<TRIPOS>BOND
     1    1    2 1
     2    1   29 1
     3    1   30 1
     4    1   31 1
     5    2    3 1
     6    3    8 ar
     7    3    4 ar
     8    4    5 ar
     9    4   32 1
    10    5   13 1
    11    5    6 ar
    12    6    7 ar
    13    6   11 1
    14    7    8 ar
    15    7   33 1
    16    8    9 1
    17    9   10 1
    18   10   34 1
    19   10   35 1
    20   10   36 1
    21   11   12 1
    22   11   14 1
    23   12   13 2
    24   12   37 1
    25   14   18 1
    26   14   15 2
    27   15   16 1
    28   15   38 1
    29   16   17 2
    30   16   22 1
    31   17   18 1
    32   17   19 1
    33   19   20 2
    34   19   21 am
    35   21   39 1
    36   21   40 1
    37   22   23 1
    38   23   24 1
    39   23   41 1
    40   23   42 1
    41   24   28 1
    42   24   25 2
    43   25   26 1
    44   25   43 1
    45   26   27 2
    46   26   44 1
    47   27   28 1
    48   27   45 1
@<TRIPOS>MOLECULE
CHEMBL522829
   67    71     0     0     0
SMALL
USER_CHARGES

@<TRIPOS>ATOM
      1 C1         -0.2962    1.2638   -0.1929 C.3       1 <0>        -0.1763
      2 C2         -0.0343   -0.2365   -0.0464 C.3       1 <0>         0.1175
      3 H1         -0.9844   -0.7694   -0.0102 H         1 <0>         0.0882
      4 C3          0.7702   -0.7233   -1.2241 C.ar      1 <0>        -0.0867
      5 C4          2.1464   -0.8148   -1.1308 C.ar      1 <0>        -0.0765
      6 C5          2.8844   -1.2613   -2.2108 C.ar      1 <0>        -0.1125
      7 C6          2.2467   -1.6167   -3.3850 C.ar      1 <0>        -0.0995
      8 C7          0.8710   -1.5257   -3.4795 C.ar      1 <0>        -0.1102
      9 C8          0.1312   -1.0842   -2.3967 C.ar      1 <0>        -0.0268
     10 Cl1        -1.5976   -0.9758   -2.5123 Cl        1 <0>        -0.0687
     11 O1          0.6932   -0.4774    1.1597 O.3       1 <0>        -0.2581
     12 C9         -0.0304   -0.5995    2.3021 C.2       1 <0>         0.1989
     13 C10        -1.3863   -0.3823    2.3041 C.2       1 <0>        -0.2258
     14 C11        -2.0813   -0.5155    3.4757 C.2       1 <0>         0.1039
     15 S1         -0.7989   -0.9631    4.6336 S.3       1 <0>         0.1494
     16 C12         0.5825   -0.9541    3.5027 C.2       1 <0>        -0.2704
     17 C13         1.9440   -1.2323    3.7586 C.2       1 <0>         0.6105
     18 O2          2.7580   -1.1750    2.8540 O.2       1 <0>        -0.5126
     19 N1          2.3422   -1.5610    5.0036 N.am      1 <0>        -0.8529
     20 N2         -3.4433   -0.3446    3.7060 N.pl3     1 <0>        -0.4116
     21 C14        -4.2016    0.7237    3.3232 C.2       1 <0>         0.2819
     22 N3         -5.4341    0.5542    3.7018 N.2       1 <0>        -0.4641
     23 C15        -5.5550   -0.6325    4.3532 C.ar      1 <0>         0.0281
     24 C16        -4.2823   -1.2286    4.3602 C.ar      1 <0>         0.0861
     25 C17        -4.1016   -2.4665    4.9591 C.ar      1 <0>        -0.1376
     26 C18        -5.1795   -3.1081    5.5436 C.ar      1 <0>         0.1437
     27 C19        -6.4394   -2.5173    5.5320 C.ar      1 <0>        -0.2014
     28 C20        -6.6290   -1.2943    4.9534 C.ar      1 <0>        -0.0139
     29 O3         -5.0068   -4.3216    6.1317 O.3       1 <0>        -0.2971
     30 C21        -6.1604   -4.9292    6.7164 C.3       1 <0>         0.0300
     31 C22        -5.7731   -6.2787    7.3247 C.3       1 <0>         0.0890
     32 H2         -5.2949   -6.8961    6.5643 H         1 <0>         0.1344
     33 C23        -7.0287   -6.9851    7.8398 C.3       1 <0>        -0.0380
     34 N4         -6.6568   -8.2807    8.4238 N.4       1 <0>        -0.3882
     35 C24        -5.8831   -8.0754    9.6749 C.3       1 <0>        -0.0073
     36 C25        -6.0631   -9.4177   10.4274 C.3       1 <0>        -0.1480
     37 C26        -7.5259   -9.8009   10.1057 C.3       1 <0>        -0.1458
     38 C27        -7.8699   -9.0294    8.8181 C.3       1 <0>        -0.0097
     39 O4         -4.8656   -6.0697    8.4085 O.3       1 <0>        -0.5421
     40 H3          0.6540    1.7967   -0.2291 H         1 <0>         0.0778
     41 H4         -0.8511    1.4476   -1.1129 H         1 <0>         0.0820
     42 H5         -0.8781    1.6159    0.6589 H         1 <0>         0.0676
     43 H6          2.6450   -0.5370   -0.2140 H         1 <0>         0.1456
     44 H7          3.9595   -1.3323   -2.1376 H         1 <0>         0.1343
     45 H8          2.8239   -1.9652   -4.2287 H         1 <0>         0.1361
     46 H9          0.3731   -1.8031   -4.3968 H         1 <0>         0.1377
     47 H10        -1.8977   -0.1096    1.3928 H         1 <0>         0.1610
     48 H11         1.6941   -1.6066    5.7239 H         1 <0>         0.3965
     49 H12         3.2768   -1.7519    5.1793 H         1 <0>         0.4112
     50 H13        -3.8319    1.5842    2.7853 H         1 <0>         0.2258
     51 H14        -3.1249   -2.9275    4.9688 H         1 <0>         0.1367
     52 H15        -7.2737   -3.0273    5.9905 H         1 <0>         0.1364
     53 H16        -7.6112   -0.8452    4.9488 H         1 <0>         0.1435
     54 H17        -6.5573   -4.2796    7.4965 H         1 <0>         0.0791
     55 H18        -6.9194   -5.0811    5.9490 H         1 <0>         0.0841
     56 H19        -7.5069   -6.3676    8.6002 H         1 <0>         0.1367
     57 H20        -7.7209   -7.1445    7.0130 H         1 <0>         0.1442
     58 H21        -4.8311   -7.8975    9.4519 H         1 <0>         0.1526
     59 H22        -6.2994   -7.2510   10.2538 H         1 <0>         0.1285
     60 H23        -5.3740  -10.1702   10.0441 H         1 <0>         0.0979
     61 H24        -5.9276   -9.2798   11.5001 H         1 <0>         0.1162
     62 H25        -7.6072  -10.8746    9.9365 H         1 <0>         0.1052
     63 H26        -8.1848   -9.4941   10.9180 H         1 <0>         0.1035
     64 H27        -8.6888   -8.3357    9.0085 H         1 <0>         0.1302
     65 H28        -8.1476   -9.7285    8.0293 H         1 <0>         0.1328
     66 H29        -5.2252   -5.5271    9.1236 H         1 <0>         0.3881
     67 H30        -6.1157   -8.8181    7.7632 H         1 <0>         0.4291
@<TRIPOS>BOND
     1    1    2 1
     2    1   40 1
     3    1   41 1
     4    1   42 1
     5    2    3 1
     6    2    4 1
     7    2   11 1
     8    4    9 ar
     9    4    5 ar
    10    5    6 ar
    11    5   43 1
    12    6    7 ar
    13    6   44 1
    14    7    8 ar
    15    7   45 1
    16    8    9 ar
    17    8   46 1
    18    9   10 1
    19   11   12 1
    20   12   16 2
    21   12   13 1
    22   13   14 2
    23   13   47 1
    24   14   15 1
    25   14   20 1
    26   15   16 1
    27   16   17 1
    28   17   18 2
    29   17   19 am
    30   19   48 1
    31   19   49 1
    32   20   24 1
    33   20   21 1
    34   21   22 2
    35   21   50 1
    36   22   23 1
    37   23   28 ar
    38   23   24 ar
    39   24   25 ar
    40   25   26 ar
    41   25   51 1
    42   26   27 ar
    43   26   29 1
    44   27   28 ar
    45   27   52 1
    46   28   53 1
    47   29   30 1
    48   30   31 1
    49   30   54 1
    50   30   55 1
    51   31   32 1
    52   31   33 1
    53   31   39 1
    54   33   34 1
    55   33   56 1
    56   33   57 1
    57   34   38 1
    58   34   35 1
    59   34   67 1
    60   35   36 1
    61   35   58 1
    62   35   59 1
    63   36   37 1
    64   36   60 1
    65   36   61 1
    66   37   38 1
    67   37   62 1
    68   37   63 1
    69   38   64 1
    70   38   65 1
    71   39   66 1
@<TRIPOS>MOLECULE
CHEMBL1209604
   56    60     0     0     0
SMALL
USER_CHARGES

@<TRIPOS>ATOM
      1 C1         -0.0053    1.5022    0.2564 C.3       1 <0>        -0.1930
      2 C2          0.0029   -0.0064    0.0012 C.3       1 <0>         0.1024
      3 H1          0.5788   -0.5037    0.7817 H         1 <0>         0.0911
      4 C3          0.6295   -0.2855   -1.3406 C.ar      1 <0>        -0.0415
      5 C4         -0.1690   -0.4286   -2.4601 C.ar      1 <0>        -0.0897
      6 C5          0.4056   -0.6846   -3.6907 C.ar      1 <0>        -0.0838
      7 C6          1.7791   -0.7971   -3.8024 C.ar      1 <0>        -0.1145
      8 C7          2.5775   -0.6532   -2.6834 C.ar      1 <0>        -0.0721
      9 C8          2.0029   -0.3929   -1.4531 C.ar      1 <0>        -0.1767
     10 C9          2.8737   -0.2307   -0.2339 C.3       1 <0>         0.5054
     11 F1          4.2165   -0.3808   -0.5967 F         1 <0>        -0.1710
     12 F2          2.6779    1.0419    0.3131 F         1 <0>        -0.1710
     13 F3          2.5352   -1.2027    0.7136 F         1 <0>        -0.1759
     14 O1         -1.3386   -0.4987    0.0122 O.3       1 <0>        -0.2565
     15 C10        -1.8684   -0.8173    1.2210 C.2       1 <0>         0.1999
     16 C11        -1.1785   -0.5657    2.3813 C.2       1 <0>        -0.2335
     17 C12        -1.7462   -0.9009    3.5808 C.2       1 <0>         0.1168
     18 S1         -3.3117   -1.5986    3.0825 S.3       1 <0>         0.1493
     19 C13        -3.1295   -1.4030    1.3173 C.2       1 <0>        -0.2751
     20 C14        -4.0293   -1.7532    0.2856 C.2       1 <0>         0.6127
     21 O2         -3.7329   -1.5454   -0.8777 O.2       1 <0>        -0.5174
     22 N1         -5.2154   -2.3172    0.5884 N.am      1 <0>        -0.8527
     23 N2         -1.2325   -0.7393    4.8642 N.pl3     1 <0>        -0.4150
     24 C15         0.0066   -1.1140    5.2931 C.2       1 <0>         0.2786
     25 N3          0.1544   -0.8124    6.5501 N.2       1 <0>        -0.4685
     26 C16        -0.9767   -0.2238    7.0171 C.ar      1 <0>         0.0547
     27 C17        -1.8815   -0.1628    5.9420 C.ar      1 <0>         0.0504
     28 C18        -3.1340    0.3999    6.1226 C.ar      1 <0>        -0.0995
     29 C19        -3.4869    0.9047    7.3696 C.ar      1 <0>        -0.0155
     30 C20        -2.5822    0.8445    8.4338 C.ar      1 <0>        -0.1103
     31 C21        -1.3499    0.2845    8.2651 C.ar      1 <0>        -0.0537
     32 C22        -4.8266    1.5089    7.5709 C.ar      1 <0>        -0.0482
     33 C23        -5.7338    1.5664    6.5144 C.ar      1 <0>        -0.1090
     34 C24        -6.9788    2.1297    6.7074 C.ar      1 <0>        -0.1168
     35 C25        -7.3269    2.6366    7.9465 C.ar      1 <0>        -0.1146
     36 C26        -6.4303    2.5826    8.9985 C.ar      1 <0>        -0.1167
     37 C27        -5.1848    2.0160    8.8186 C.ar      1 <0>        -0.1056
     38 H2          1.0179    1.8777    0.2480 H         1 <0>         0.0972
     39 H3         -0.5812    1.9995   -0.5241 H         1 <0>         0.0773
     40 H4         -0.4585    1.7040    1.2269 H         1 <0>         0.0694
     41 H5         -1.2419   -0.3407   -2.3729 H         1 <0>         0.1485
     42 H6         -0.2182   -0.7971   -4.5651 H         1 <0>         0.1374
     43 H7          2.2281   -0.9979   -4.7639 H         1 <0>         0.1385
     44 H8          3.6503   -0.7414   -2.7705 H         1 <0>         0.1425
     45 H9         -0.2001   -0.1096    2.3478 H         1 <0>         0.1591
     46 H10        -5.4513   -2.4826    1.5146 H         1 <0>         0.3976
     47 H11        -5.8330   -2.5576   -0.1198 H         1 <0>         0.4103
     48 H12         0.7557   -1.5919    4.6791 H         1 <0>         0.2225
     49 H13        -3.8322    0.4468    5.3000 H         1 <0>         0.1294
     50 H14        -2.8635    1.2392    9.3989 H         1 <0>         0.1391
     51 H15        -0.6576    0.2441    9.0931 H         1 <0>         0.1397
     52 H16        -5.4629    1.1712    5.5465 H         1 <0>         0.1232
     53 H17        -7.6825    2.1751    5.8894 H         1 <0>         0.1255
     54 H18        -8.3023    3.0766    8.0931 H         1 <0>         0.1243
     55 H19        -6.7073    2.9803    9.9637 H         1 <0>         0.1265
     56 H20        -4.4875    1.9696    9.6420 H         1 <0>         0.1283
@<TRIPOS>BOND
     1    1    2 1
     2    1   38 1
     3    1   39 1
     4    1   40 1
     5    2    3 1
     6    2    4 1
     7    2   14 1
     8    4    9 ar
     9    4    5 ar
    10    5    6 ar
    11    5   41 1
    12    6    7 ar
    13    6   42 1
    14    7    8 ar
    15    7   43 1
    16    8    9 ar
    17    8   44 1
    18    9   10 1
    19   10   11 1
    20   10   12 1
    21   10   13 1
    22   14   15 1
    23   15   19 2
    24   15   16 1
    25   16   17 2
    26   16   45 1
    27   17   18 1
    28   17   23 1
    29   18   19 1
    30   19   20 1
    31   20   21 2
    32   20   22 am
    33   22   46 1
    34   22   47 1
    35   23   27 1
    36   23   24 1
    37   24   25 2
    38   24   48 1
    39   25   26 1
    40   26   31 ar
    41   26   27 ar
    42   27   28 ar
    43   28   29 ar
    44   28   49 1
    45   29   30 ar
    46   29   32 1
    47   30   31 ar
    48   30   50 1
    49   31   51 1
    50   32   37 ar
    51   32   33 ar
    52   33   34 ar
    53   33   52 1
    54   34   35 ar
    55   34   53 1
    56   35   36 ar
    57   35   54 1
    58   36   37 ar
    59   36   55 1
    60   37   56 1
@<TRIPOS>MOLECULE
CHEMBL1209603
   56    60     0     0     0
SMALL
USER_CHARGES

@<TRIPOS>ATOM
      1 C1         -0.2378    1.5009   -0.1012 C.3       1 <0>        -0.1930
      2 C2          0.0024   -0.0065    0.0031 C.3       1 <0>         0.1024
      3 H1         -0.9537   -0.5208    0.1015 H         1 <0>         0.0910
      4 C3          0.8555   -0.2969    1.2109 C.ar      1 <0>        -0.0415
      5 C4          2.2264   -0.4161    1.0764 C.ar      1 <0>        -0.0898
      6 C5          3.0089   -0.6824    2.1842 C.ar      1 <0>        -0.0838
      7 C6          2.4208   -0.8291    3.4268 C.ar      1 <0>        -0.1145
      8 C7          1.0505   -0.7090    3.5614 C.ar      1 <0>        -0.0721
      9 C8          0.2682   -0.4384    2.4541 C.ar      1 <0>        -0.1767
     10 C9         -1.2253   -0.3022    2.6017 C.3       1 <0>         0.5054
     11 F1         -1.5800   -0.4848    3.9426 F         1 <0>        -0.1710
     12 F2         -1.6208    0.9731    2.1842 F         1 <0>        -0.1711
     13 F3         -1.8617   -1.2685    1.8153 F         1 <0>        -0.1759
     14 O1          0.6709   -0.4649   -1.1737 O.3       1 <0>        -0.2566
     15 C10        -0.1062   -0.7743   -2.2432 C.2       1 <0>         0.1996
     16 C11        -1.4598   -0.5443   -2.2209 C.2       1 <0>        -0.2337
     17 C12        -2.2098   -0.8698   -3.3187 C.2       1 <0>         0.1165
     18 S1         -0.9851   -1.5266   -4.4387 S.3       1 <0>         0.1513
     19 C13         0.4497   -1.3286   -3.3950 C.2       1 <0>        -0.2755
     20 C14         1.7985   -1.6514   -3.6656 C.2       1 <0>         0.6127
     21 O2          2.6548   -1.4459   -2.8237 O.2       1 <0>        -0.5176
     22 N1          2.1377   -2.1866   -4.8551 N.am      1 <0>        -0.8527
     23 N2         -3.5805   -0.7255   -3.5123 N.pl3     1 <0>        -0.4151
     24 C15        -4.5649   -1.1324   -2.6607 C.2       1 <0>         0.2805
     25 N3         -5.7320   -0.8398   -3.1548 N.2       1 <0>        -0.4690
     26 C16        -5.5796   -0.2252   -4.3572 C.ar      1 <0>         0.0580
     27 C17        -4.1977   -0.1373   -4.6016 C.ar      1 <0>         0.0475
     28 C18        -3.7320    0.4562   -5.7672 C.ar      1 <0>        -0.1021
     29 C19        -4.6236    0.9631   -6.6851 C.ar      1 <0>        -0.0827
     30 C20        -5.9996    0.8841   -6.4508 C.ar      1 <0>        -0.0428
     31 C21        -6.4787    0.2858   -5.2936 C.ar      1 <0>        -0.0508
     32 C22        -6.9517    1.4344   -7.4470 C.ar      1 <0>        -0.0448
     33 C23        -8.3240    1.3635   -7.2161 C.ar      1 <0>        -0.1096
     34 C24        -9.2051    1.8769   -8.1461 C.ar      1 <0>        -0.1161
     35 C25        -8.7282    2.4605   -9.3060 C.ar      1 <0>        -0.1168
     36 C26        -7.3669    2.5332   -9.5405 C.ar      1 <0>        -0.1170
     37 C27        -6.4766    2.0290   -8.6142 C.ar      1 <0>        -0.1095
     38 H2          0.7183    2.0152   -0.1995 H         1 <0>         0.0773
     39 H3         -0.8549    1.7109   -0.9748 H         1 <0>         0.0695
     40 H4         -0.7477    1.8506    0.7965 H         1 <0>         0.0971
     41 H5          2.6857   -0.3015    0.1057 H         1 <0>         0.1486
     42 H6          4.0796   -0.7763    2.0790 H         1 <0>         0.1374
     43 H7          3.0322   -1.0379    4.2923 H         1 <0>         0.1385
     44 H8          0.5911   -0.8240    4.5321 H         1 <0>         0.1425
     45 H9         -1.9268   -0.1124   -1.3481 H         1 <0>         0.1589
     46 H10         1.4559   -2.3503   -5.5254 H         1 <0>         0.3977
     47 H11         3.0636   -2.4082   -5.0409 H         1 <0>         0.4103
     48 H12        -4.3996   -1.6258   -1.7144 H         1 <0>         0.2227
     49 H13        -2.6701    0.5204   -5.9534 H         1 <0>         0.1292
     50 H14        -4.2584    1.4246   -7.5907 H         1 <0>         0.1401
     51 H15        -7.5420    0.2273   -5.1132 H         1 <0>         0.1397
     52 H16        -8.6975    0.9074   -6.3112 H         1 <0>         0.1267
     53 H17       -10.2690    1.8225   -7.9682 H         1 <0>         0.1256
     54 H18        -9.4212    2.8607  -10.0312 H         1 <0>         0.1237
     55 H19        -6.9999    2.9896  -10.4480 H         1 <0>         0.1254
     56 H20        -5.4138    2.0908   -8.7960 H         1 <0>         0.1262
@<TRIPOS>BOND
     1    1    2 1
     2    1   38 1
     3    1   39 1
     4    1   40 1
     5    2    3 1
     6    2    4 1
     7    2   14 1
     8    4    9 ar
     9    4    5 ar
    10    5    6 ar
    11    5   41 1
    12    6    7 ar
    13    6   42 1
    14    7    8 ar
    15    7   43 1
    16    8    9 ar
    17    8   44 1
    18    9   10 1
    19   10   11 1
    20   10   12 1
    21   10   13 1
    22   14   15 1
    23   15   19 2
    24   15   16 1
    25   16   17 2
    26   16   45 1
    27   17   18 1
    28   17   23 1
    29   18   19 1
    30   19   20 1
    31   20   21 2
    32   20   22 am
    33   22   46 1
    34   22   47 1
    35   23   27 1
    36   23   24 1
    37   24   25 2
    38   24   48 1
    39   25   26 1
    40   26   31 ar
    41   26   27 ar
    42   27   28 ar
    43   28   29 ar
    44   28   49 1
    45   29   30 ar
    46   29   50 1
    47   30   31 ar
    48   30   32 1
    49   31   51 1
    50   32   37 ar
    51   32   33 ar
    52   33   34 ar
    53   33   52 1
    54   34   35 ar
    55   34   53 1
    56   35   36 ar
    57   35   54 1
    58   36   37 ar
    59   36   55 1
    60   37   56 1
@<TRIPOS>MOLECULE
CHEMBL480383
   45    48     0     0     0
SMALL
USER_CHARGES

@<TRIPOS>ATOM
      1 C1         -0.0173    1.4248    0.0099 C.3       1 <0>         0.0223
      2 O1          0.0021   -0.0041    0.0020 O.3       1 <0>        -0.2998
      3 C2          0.6064   -0.6077   -1.0568 C.ar      1 <0>         0.1124
      4 C3          1.1688    0.1605   -2.0550 C.ar      1 <0>        -0.1254
      5 C4          1.7901   -0.4601   -3.1426 C.ar      1 <0>         0.0600
      6 C5          1.8355   -1.8625   -3.2080 C.ar      1 <0>         0.0546
      7 C6          1.2663   -2.6248   -2.1979 C.ar      1 <0>        -0.1733
      8 C7          0.6590   -2.0011   -1.1242 C.ar      1 <0>         0.1400
      9 O2          0.1056   -2.7483   -0.1314 O.3       1 <0>        -0.2950
     10 C8          0.1943   -4.1685   -0.2621 C.3       1 <0>         0.0213
     11 N1          2.5039   -2.1682   -4.3818 N.pl3     1 <0>        -0.4130
     12 C9          2.8350   -0.9859   -4.9771 C.2       1 <0>         0.2744
     13 N2          2.4177    0.0103   -4.2526 N.2       1 <0>        -0.4668
     14 C10         2.7852   -3.4430   -4.8640 C.2       1 <0>         0.1169
     15 C11         2.5620   -3.9560   -6.1133 C.2       1 <0>        -0.2323
     16 C12         2.9218   -5.2546   -6.3774 C.2       1 <0>         0.1974
     17 C13         3.5035   -5.9992   -5.3527 C.2       1 <0>        -0.2764
     18 S1          3.5356   -4.8205   -4.0123 S.3       1 <0>         0.1420
     19 C14         3.9553   -7.3379   -5.3715 C.2       1 <0>         0.6103
     20 O3          3.8568   -7.9998   -6.3896 O.2       1 <0>        -0.5145
     21 N3          4.4952   -7.8826   -4.2632 N.am      1 <0>        -0.8538
     22 O4          2.7161   -5.7989   -7.6041 O.3       1 <0>        -0.2620
     23 C15         2.1142   -4.9611   -8.5930 C.3       1 <0>         0.1089
     24 C16         1.9659   -5.7304   -9.8804 C.2       1 <0>        -0.1340
     25 C17         2.9779   -5.7241  -10.8218 C.2       1 <0>        -0.1431
     26 C18         2.8127   -6.4264  -11.9693 C.2       1 <0>        -0.1710
     27 S2          1.1872   -7.1288  -11.7415 S.3       1 <0>         0.0560
     28 C19         0.8404   -6.4433  -10.1299 C.2       1 <0>        -0.1439
     29 H1          1.0053    1.8021    0.0021 H         1 <0>         0.0586
     30 H2         -0.5445    1.7859   -0.8732 H         1 <0>         0.0585
     31 H3         -0.5275    1.7763    0.9067 H         1 <0>         0.1048
     32 H4          1.1289    1.2382   -1.9966 H         1 <0>         0.1506
     33 H5          1.3011   -3.7030   -2.2486 H         1 <0>         0.1404
     34 H6         -0.3070   -4.4811   -1.1781 H         1 <0>         0.0572
     35 H7          1.2425   -4.4650   -0.3022 H         1 <0>         0.0580
     36 H8         -0.2849   -4.6428    0.5943 H         1 <0>         0.1068
     37 H9          3.3661   -0.8913   -5.9127 H         1 <0>         0.2228
     38 H10         2.1084   -3.3472   -6.8814 H         1 <0>         0.1589
     39 H11         4.5736   -7.3556   -3.4526 H         1 <0>         0.3969
     40 H12         4.8053   -8.8015   -4.2761 H         1 <0>         0.4099
     41 H13         1.1320   -4.6388   -8.2471 H         1 <0>         0.0753
     42 H14         2.7444   -4.0880   -8.7620 H         1 <0>         0.0754
     43 H15         3.8866   -5.1675  -10.6460 H         1 <0>         0.1359
     44 H16         3.4887   -6.5332  -12.8047 H         1 <0>         0.1893
     45 H17        -0.0386   -6.5644   -9.5142 H         1 <0>         0.1883
@<TRIPOS>BOND
     1    1    2 1
     2    1   29 1
     3    1   30 1
     4    1   31 1
     5    2    3 1
     6    3    8 ar
     7    3    4 ar
     8    4    5 ar
     9    4   32 1
    10    5   13 1
    11    5    6 ar
    12    6    7 ar
    13    6   11 1
    14    7    8 ar
    15    7   33 1
    16    8    9 1
    17    9   10 1
    18   10   34 1
    19   10   35 1
    20   10   36 1
    21   11   12 1
    22   11   14 1
    23   12   13 2
    24   12   37 1
    25   14   18 1
    26   14   15 2
    27   15   16 1
    28   15   38 1
    29   16   17 2
    30   16   22 1
    31   17   18 1
    32   17   19 1
    33   19   20 2
    34   19   21 am
    35   21   39 1
    36   21   40 1
    37   22   23 1
    38   23   24 1
    39   23   41 1
    40   23   42 1
    41   24   28 2
    42   24   25 1
    43   25   26 2
    44   25   43 1
    45   26   27 1
    46   26   44 1
    47   27   28 1
    48   28   45 1
@<TRIPOS>MOLECULE
CHEMBL480545
   45    48     0     0     0
SMALL
USER_CHARGES

@<TRIPOS>ATOM
      1 C1         -0.0173    1.4248    0.0099 C.3       1 <0>         0.0223
      2 O1          0.0021   -0.0041    0.0020 O.3       1 <0>        -0.2998
      3 C2         -1.2015   -0.6381    0.0101 C.ar      1 <0>         0.1124
      4 C3         -2.3661    0.1012    0.0194 C.ar      1 <0>        -0.1253
      5 C4         -3.6027   -0.5507    0.0273 C.ar      1 <0>         0.0602
      6 C5         -3.6468   -1.9546    0.0256 C.ar      1 <0>         0.0547
      7 C6         -2.4686   -2.6876    0.0161 C.ar      1 <0>        -0.1734
      8 C7         -1.2512   -2.0332    0.0031 C.ar      1 <0>         0.1402
      9 O2         -0.0963   -2.7517   -0.0113 O.3       1 <0>        -0.2950
     10 C8         -0.2182   -4.1755   -0.0179 C.3       1 <0>         0.0213
     11 N1         -4.9894   -2.2941    0.0346 N.pl3     1 <0>        -0.4130
     12 C9         -5.7000   -1.1293    0.0413 C.2       1 <0>         0.2743
     13 N2         -4.8891   -0.1123    0.0371 N.2       1 <0>        -0.4663
     14 C10        -5.5155   -3.5826    0.0365 C.2       1 <0>         0.1181
     15 C11        -6.4727   -4.1169    0.8562 C.2       1 <0>        -0.2335
     16 C12        -6.8486   -5.4259    0.6811 C.2       1 <0>         0.1971
     17 C13        -6.2334   -6.1589   -0.3323 C.2       1 <0>        -0.2725
     18 S1         -5.1185   -4.9542   -1.0343 S.3       1 <0>         0.1467
     19 C14        -6.4419   -7.5045   -0.7095 C.2       1 <0>         0.6099
     20 O3         -7.2575   -8.1850   -0.1129 O.2       1 <0>        -0.5131
     21 N3         -5.7384   -8.0353   -1.7292 N.am      1 <0>        -0.8534
     22 O4         -7.7943   -5.9914    1.4745 O.3       1 <0>        -0.2594
     23 C15        -8.3707   -5.1643    2.4873 C.3       1 <0>         0.1386
     24 C16        -9.3919   -5.9567    3.2620 C.2       1 <0>        -0.1654
     25 C17        -9.2227   -6.7061    4.3793 C.2       1 <0>        -0.0310
     26 C18       -10.3166   -7.3533    4.9241 C.2       1 <0>        -0.1637
     27 C19       -11.5252   -7.2192    4.3249 C.2       1 <0>        -0.1446
     28 S2        -11.1397   -6.1459    2.9514 S.3       1 <0>         0.1095
     29 Cl1        -7.6567   -6.8513    5.1143 Cl        1 <0>        -0.0498
     30 H1          1.0053    1.8021    0.0021 H         1 <0>         0.1047
     31 H2         -0.5445    1.7859   -0.8732 H         1 <0>         0.0587
     32 H3         -0.5275    1.7763    0.9067 H         1 <0>         0.0586
     33 H4         -2.3227    1.1803    0.0210 H         1 <0>         0.1506
     34 H5         -2.5028   -3.7670    0.0152 H         1 <0>         0.1404
     35 H6          0.7747   -4.6250   -0.0294 H         1 <0>         0.1068
     36 H7         -0.7529   -4.4985    0.8753 H         1 <0>         0.0574
     37 H8         -0.7692   -4.4889   -0.9045 H         1 <0>         0.0581
     38 H9         -6.7778   -1.0617    0.0488 H         1 <0>         0.2231
     39 H10        -6.9263   -3.5166    1.6309 H         1 <0>         0.1592
     40 H11        -5.0890   -7.4935   -2.2042 H         1 <0>         0.3970
     41 H12        -5.8815   -8.9591   -1.9882 H         1 <0>         0.4102
     42 H13        -7.5885   -4.8199    3.1638 H         1 <0>         0.0924
     43 H14        -8.8539   -4.3046    2.0229 H         1 <0>         0.0874
     44 H15       -10.2096   -7.9569    5.8133 H         1 <0>         0.1498
     45 H16       -12.4756   -7.6472    4.6076 H         1 <0>         0.1996
@<TRIPOS>BOND
     1    1    2 1
     2    1   30 1
     3    1   31 1
     4    1   32 1
     5    2    3 1
     6    3    8 ar
     7    3    4 ar
     8    4    5 ar
     9    4   33 1
    10    5   13 1
    11    5    6 ar
    12    6    7 ar
    13    6   11 1
    14    7    8 ar
    15    7   34 1
    16    8    9 1
    17    9   10 1
    18   10   35 1
    19   10   36 1
    20   10   37 1
    21   11   12 1
    22   11   14 1
    23   12   13 2
    24   12   38 1
    25   14   18 1
    26   14   15 2
    27   15   16 1
    28   15   39 1
    29   16   17 2
    30   16   22 1
    31   17   18 1
    32   17   19 1
    33   19   20 2
    34   19   21 am
    35   21   40 1
    36   21   41 1
    37   22   23 1
    38   23   24 1
    39   23   42 1
    40   23   43 1
    41   24   28 1
    42   24   25 2
    43   25   26 1
    44   25   29 1
    45   26   27 2
    46   26   44 1
    47   27   28 1
    48   27   45 1
@<TRIPOS>MOLECULE
CHEMBL1209841
   56    60     0     0     0
SMALL
USER_CHARGES

@<TRIPOS>ATOM
      1 C1         -0.2378    1.5009   -0.1012 C.3       1 <0>        -0.1929
      2 C2          0.0024   -0.0065    0.0031 C.3       1 <0>         0.1024
      3 H1         -0.9537   -0.5208    0.1015 H         1 <0>         0.0912
      4 C3          0.8555   -0.2969    1.2109 C.ar      1 <0>        -0.0413
      5 C4          2.2264   -0.4161    1.0764 C.ar      1 <0>        -0.0898
      6 C5          3.0089   -0.6824    2.1842 C.ar      1 <0>        -0.0840
      7 C6          2.4208   -0.8291    3.4268 C.ar      1 <0>        -0.1147
      8 C7          1.0505   -0.7090    3.5614 C.ar      1 <0>        -0.0721
      9 C8          0.2682   -0.4384    2.4541 C.ar      1 <0>        -0.1767
     10 C9         -1.2253   -0.3022    2.6017 C.3       1 <0>         0.5054
     11 F1         -1.5800   -0.4848    3.9426 F         1 <0>        -0.1711
     12 F2         -1.6208    0.9731    2.1842 F         1 <0>        -0.1710
     13 F3         -1.8617   -1.2685    1.8153 F         1 <0>        -0.1757
     14 O1          0.6709   -0.4649   -1.1737 O.3       1 <0>        -0.2570
     15 C10        -0.1062   -0.7743   -2.2432 C.2       1 <0>         0.2005
     16 C11        -1.4598   -0.5443   -2.2209 C.2       1 <0>        -0.2362
     17 C12        -2.2098   -0.8698   -3.3187 C.2       1 <0>         0.1208
     18 S1         -0.9851   -1.5266   -4.4387 S.3       1 <0>         0.1490
     19 C13         0.4497   -1.3286   -3.3950 C.2       1 <0>        -0.2774
     20 C14         1.7984   -1.6520   -3.6653 C.2       1 <0>         0.6129
     21 O2          2.6546   -1.4472   -2.8232 O.2       1 <0>        -0.5183
     22 N1          2.1376   -2.1872   -4.8549 N.am      1 <0>        -0.8531
     23 N2         -3.5804   -0.7251   -3.5125 N.pl3     1 <0>        -0.4160
     24 C15        -4.5650   -1.1314   -2.6611 C.2       1 <0>         0.2794
     25 N3         -5.7320   -0.8379   -3.1552 N.2       1 <0>        -0.4702
     26 C16        -5.5794   -0.2231   -4.3574 C.ar      1 <0>         0.0643
     27 C17        -4.1979   -0.1367   -4.6025 C.ar      1 <0>         0.0376
     28 C18        -3.7323    0.4561   -5.7681 C.ar      1 <0>        -0.0981
     29 C19        -4.6243    0.9635   -6.6859 C.ar      1 <0>        -0.0922
     30 C20        -5.9997    0.8856   -6.4510 C.ar      1 <0>         0.0107
     31 C21        -6.4786    0.2895   -5.2935 C.ar      1 <0>        -0.0617
     32 C22        -6.9526    1.4363   -7.4481 C.2       1 <0>        -0.2019
     33 C23        -8.3572    1.4353   -7.3456 C.2       1 <0>         0.0666
     34 N4         -8.8429    2.0066   -8.4158 N.2       1 <0>        -0.2923
     35 N5         -7.7765    2.3919   -9.2372 N.pl3     1 <0>        -0.3710
     36 C24        -6.6263    2.0404   -8.6268 C.2       1 <0>         0.0741
     37 C25        -7.8901    3.0660  -10.5330 C.3       1 <0>         0.0981
     38 H2          0.7183    2.0152   -0.1995 H         1 <0>         0.0770
     39 H3         -0.8549    1.7109   -0.9748 H         1 <0>         0.0697
     40 H4         -0.7477    1.8506    0.7965 H         1 <0>         0.0970
     41 H5          2.6857   -0.3015    0.1057 H         1 <0>         0.1485
     42 H6          4.0796   -0.7763    2.0790 H         1 <0>         0.1373
     43 H7          3.0322   -1.0379    4.2923 H         1 <0>         0.1384
     44 H8          0.5911   -0.8240    4.5321 H         1 <0>         0.1424
     45 H9         -1.9267   -0.1124   -1.3481 H         1 <0>         0.1586
     46 H10         1.4559   -2.3503   -5.5254 H         1 <0>         0.3976
     47 H11         3.0634   -2.4092   -5.0405 H         1 <0>         0.4099
     48 H12        -4.4001   -1.6254   -1.7149 H         1 <0>         0.2213
     49 H13        -2.6704    0.5195   -5.9549 H         1 <0>         0.1269
     50 H14        -4.2593    1.4245   -7.5918 H         1 <0>         0.1338
     51 H15        -7.5418    0.2317   -5.1128 H         1 <0>         0.1367
     52 H16        -8.9327    1.0320   -6.5255 H         1 <0>         0.1877
     53 H17        -5.6278    2.2052   -9.0040 H         1 <0>         0.1786
     54 H18        -7.8842    4.1455  -10.3826 H         1 <0>         0.0782
     55 H19        -7.0486    2.7825  -11.1651 H         1 <0>         0.0900
     56 H20        -8.8222    2.7715  -11.0152 H         1 <0>         0.0923
@<TRIPOS>BOND
     1    1    2 1
     2    1   38 1
     3    1   39 1
     4    1   40 1
     5    2    3 1
     6    2    4 1
     7    2   14 1
     8    4    9 ar
     9    4    5 ar
    10    5    6 ar
    11    5   41 1
    12    6    7 ar
    13    6   42 1
    14    7    8 ar
    15    7   43 1
    16    8    9 ar
    17    8   44 1
    18    9   10 1
    19   10   11 1
    20   10   12 1
    21   10   13 1
    22   14   15 1
    23   15   19 2
    24   15   16 1
    25   16   17 2
    26   16   45 1
    27   17   18 1
    28   17   23 1
    29   18   19 1
    30   19   20 1
    31   20   21 2
    32   20   22 am
    33   22   46 1
    34   22   47 1
    35   23   27 1
    36   23   24 1
    37   24   25 2
    38   24   48 1
    39   25   26 1
    40   26   31 ar
    41   26   27 ar
    42   27   28 ar
    43   28   29 ar
    44   28   49 1
    45   29   30 ar
    46   29   50 1
    47   30   31 ar
    48   30   32 1
    49   31   51 1
    50   32   36 2
    51   32   33 1
    52   33   34 2
    53   33   52 1
    54   34   35 1
    55   35   36 1
    56   35   37 1
    57   36   53 1
    58   37   54 1
    59   37   55 1
    60   37   56 1
@<TRIPOS>MOLECULE
CHEMBL475881
   71    73     0     0     0
SMALL
USER_CHARGES

@<TRIPOS>ATOM
      1 C1         -1.1685   -2.2294    2.5702 C.3       1 <0>        -0.1674
      2 C2         -0.6282   -1.1538    1.6257 C.3       1 <0>         0.0798
      3 N1          0.1347   -1.7886    0.5482 N.am      1 <0>        -0.5439
      4 C3         -0.4498   -2.0468   -0.6123 C.2       1 <0>         0.5605
      5 O1         -1.6176   -1.7731   -0.8256 O.2       1 <0>        -0.5118
      6 C4          0.3760   -2.6649   -1.5946 C.2       1 <0>        -0.4365
      7 C5          0.0687   -3.0461   -2.8605 C.2       1 <0>         0.3180
      8 N2         -1.1937   -2.8463   -3.3475 N.pl3     1 <0>        -0.6160
      9 C6         -1.5104   -3.2391   -4.6521 C.ar      1 <0>         0.1359
     10 C7         -0.5400   -3.8394   -5.4526 C.ar      1 <0>        -0.1357
     11 C8         -0.8376   -4.2315   -6.7381 C.ar      1 <0>        -0.0769
     12 C9         -2.1160   -4.0296   -7.2496 C.ar      1 <0>         0.0650
     13 C10        -3.0948   -3.4251   -6.4448 C.ar      1 <0>        -0.0264
     14 C11        -2.7884   -3.0362   -5.1435 C.ar      1 <0>        -0.1028
     15 C12        -4.3138   -3.3597   -7.2719 C.2       1 <0>        -0.2450
     16 C13        -3.9935   -3.9114   -8.4775 C.2       1 <0>         0.1288
     17 N3         -2.6987   -4.3084   -8.4703 N.pl3     1 <0>        -0.5671
     18 H1         -2.2446   -4.7291   -9.2172 H         1 <0>         0.4273
     19 C14        -5.6167   -2.8094   -6.8754 C.2       1 <0>         0.6007
     20 O2         -5.7673   -2.3450   -5.7608 O.2       1 <0>        -0.5255
     21 N4         -6.6455   -2.8189   -7.7460 N.am      1 <0>        -0.7360
     22 C15        -7.9450   -2.2701   -7.3505 C.3       1 <0>         0.0993
     23 C16        -8.9300   -2.4028   -8.5137 C.3       1 <0>        -0.0259
     24 N5        -10.2654   -1.9753   -8.0756 N.4       1 <0>        -0.3825
     25 C17       -10.2395   -0.5424   -7.7527 C.3       1 <0>        -0.0185
     26 C18       -11.5947   -0.1243   -7.1789 C.3       1 <0>        -0.1887
     27 C19       -11.2348   -2.2171   -9.1526 C.3       1 <0>        -0.0151
     28 C20       -11.3697   -3.7227   -9.3887 C.3       1 <0>        -0.1890
     29 S1          1.9227   -2.8034   -0.7158 S.3       1 <0>         0.2812
     30 C21         1.4501   -2.1082    0.7403 C.2       1 <0>         0.2071
     31 C22         2.2256   -1.9056    1.8883 C.2       1 <0>        -0.2082
     32 C23         1.6150   -1.4164    3.0877 C.1       1 <0>         0.2600
     33 N6          1.1306   -1.0284    4.0392 N.1       1 <0>        -0.4152
     34 C24         3.6157   -2.1847    1.8633 C.2       1 <0>         0.6024
     35 O3          4.1350   -2.6007    0.8433 O.2       1 <0>        -0.5305
     36 N7          4.3622   -1.9896    2.9684 N.am      1 <0>        -0.7293
     37 C25         5.7983   -2.2780    2.9426 C.3       1 <0>         0.0822
     38 C26         6.4044   -1.9734    4.3140 C.3       1 <0>         0.4461
     39 F1          5.7862   -2.7694    5.2843 F         1 <0>        -0.1775
     40 F2          7.7758   -2.2488    4.2893 F         1 <0>        -0.1704
     41 F3          6.2053   -0.6234    4.6224 F         1 <0>        -0.1776
     42 H2         -1.8178   -2.9070    2.0157 H         1 <0>         0.0637
     43 H3         -0.3366   -2.7905    2.9958 H         1 <0>         0.0626
     44 H4         -1.7362   -1.7571    3.3719 H         1 <0>         0.0817
     45 H5         -1.4602   -0.5928    1.2001 H         1 <0>         0.1053
     46 H6          0.0210   -0.4762    2.1802 H         1 <0>         0.0963
     47 H7          0.8210   -3.5073   -3.4833 H         1 <0>         0.1814
     48 H8         -1.8694   -2.4321   -2.7882 H         1 <0>         0.4312
     49 H9          0.4540   -3.9979   -5.0611 H         1 <0>         0.1411
     50 H10        -0.0785   -4.6957   -7.3502 H         1 <0>         0.1385
     51 H11        -3.5422   -2.5750   -4.5227 H         1 <0>         0.1406
     52 H12        -4.6708   -4.0164   -9.3121 H         1 <0>         0.1795
     53 H13        -6.5255   -3.1891   -8.6345 H         1 <0>         0.4035
     54 H14        -8.3242   -2.8193   -6.4887 H         1 <0>         0.0883
     55 H15        -7.8307   -1.2180   -7.0893 H         1 <0>         0.0907
     56 H16        -8.6010   -1.7750   -9.3418 H         1 <0>         0.1379
     57 H17        -8.9699   -3.4423   -8.8392 H         1 <0>         0.1387
     58 H18        -9.4584   -0.3498   -7.0172 H         1 <0>         0.1336
     59 H19       -10.0357    0.0303   -8.6575 H         1 <0>         0.1316
     60 H20       -12.3758   -0.3169   -7.9144 H         1 <0>         0.0810
     61 H21       -11.7985   -0.6970   -6.2741 H         1 <0>         0.0818
     62 H22       -11.5755    0.9388   -6.9393 H         1 <0>         0.1080
     63 H23       -12.2034   -1.8056   -8.8687 H         1 <0>         0.1358
     64 H24       -10.8893   -1.7353  -10.0673 H         1 <0>         0.1309
     65 H25       -12.1693   -3.9077  -10.1061 H         1 <0>         0.1077
     66 H26       -10.4314   -4.1144   -9.7815 H         1 <0>         0.0797
     67 H27       -11.6046   -4.2186   -8.4469 H         1 <0>         0.0808
     68 H28         3.9486   -1.6583    3.7808 H         1 <0>         0.4072
     69 H29         5.9534   -3.3298    2.7023 H         1 <0>         0.1206
     70 H30         6.2799   -1.6578    2.1866 H         1 <0>         0.1204
     71 H31       -10.5347   -2.4997   -7.2567 H         1 <0>         0.4251
@<TRIPOS>BOND
     1    1    2 1
     2    1   42 1
     3    1   43 1
     4    1   44 1
     5    2    3 1
     6    2   45 1
     7    2   46 1
     8    3   30 1
     9    3    4 am
    10    4    5 2
    11    4    6 1
    12    6    7 2
    13    6   29 1
    14    7    8 1
    15    7   47 1
    16    8    9 1
    17    8   48 1
    18    9   14 ar
    19    9   10 ar
    20   10   11 ar
    21   10   49 1
    22   11   12 ar
    23   11   50 1
    24   12   17 1
    25   12   13 ar
    26   13   14 ar
    27   13   15 1
    28   14   51 1
    29   15   16 2
    30   15   19 1
    31   16   17 1
    32   16   52 1
    33   17   18 1
    34   19   20 2
    35   19   21 am
    36   21   22 1
    37   21   53 1
    38   22   23 1
    39   22   54 1
    40   22   55 1
    41   23   24 1
    42   23   56 1
    43   23   57 1
    44   24   25 1
    45   24   27 1
    46   24   71 1
    47   25   26 1
    48   25   58 1
    49   25   59 1
    50   26   60 1
    51   26   61 1
    52   26   62 1
    53   27   28 1
    54   27   63 1
    55   27   64 1
    56   28   65 1
    57   28   66 1
    58   28   67 1
    59   29   30 1
    60   30   31 2
    61   31   32 1
    62   31   34 1
    63   32   33 3
    64   34   35 2
    65   34   36 am
    66   36   37 1
    67   36   68 1
    68   37   38 1
    69   37   69 1
    70   37   70 1
    71   38   39 1
    72   38   40 1
    73   38   41 1
@<TRIPOS>MOLECULE
CHEMBL475881__1
   70    72     0     0     0
SMALL
USER_CHARGES

@<TRIPOS>ATOM
      1 C1         -1.7664   -2.4704   -1.9308 C.3       1 <0>        -0.1633
      2 C2         -1.2221   -1.4042   -0.9780 C.3       1 <0>         0.0852
      3 N1         -0.5840   -2.0545    0.1693 N.am      1 <0>        -0.5460
      4 C3          0.7256   -2.2546    0.1722 C.2       1 <0>         0.5622
      5 O1          1.4359   -1.9137   -0.7570 O.2       1 <0>        -0.5390
      6 C4          1.2493   -2.8938    1.3325 C.2       1 <0>        -0.4072
      7 C5          2.5314   -3.2292    1.6246 C.2       1 <0>         0.2649
      8 N2          3.5314   -2.9509    0.7332 N.pl3     1 <0>        -0.6336
      9 C6          4.8529   -3.2967    1.0342 C.ar      1 <0>         0.1643
     10 C7          5.1487   -3.9298    2.2402 C.ar      1 <0>        -0.1410
     11 C8          6.4446   -4.2759    2.5497 C.ar      1 <0>        -0.0768
     12 C9          7.4732   -3.9942    1.6558 C.ar      1 <0>         0.0501
     13 C10         7.1772   -3.3569    0.4403 C.ar      1 <0>        -0.0210
     14 C11         5.8635   -3.0145    0.1314 C.ar      1 <0>        -0.1242
     15 C12         8.4654   -3.2078   -0.2618 C.2       1 <0>        -0.2482
     16 C13         9.4155   -3.7484    0.5540 C.2       1 <0>         0.1226
     17 N3          8.8364   -4.2138    1.6864 N.pl3     1 <0>        -0.5674
     18 H1          9.3120   -4.6407    2.4160 H         1 <0>         0.4239
     19 C14         8.6825   -2.5981   -1.5804 C.2       1 <0>         0.6000
     20 O2          7.7397   -2.1517   -2.2069 O.2       1 <0>        -0.5238
     21 N4          9.9259   -2.5330   -2.0963 N.am      1 <0>        -0.7380
     22 C15        10.1424   -1.9249   -3.4114 C.3       1 <0>         0.0996
     23 C16        11.6314   -1.9784   -3.7592 C.3       1 <0>        -0.0255
     24 N5         11.8321   -1.4884   -5.1294 N.4       1 <0>        -0.3824
     25 C17        11.4734   -0.0655   -5.1980 C.3       1 <0>        -0.0189
     26 C18        11.5628    0.4137   -6.6483 C.3       1 <0>        -0.1881
     27 C19        13.2414   -1.6569   -5.5082 C.3       1 <0>        -0.0147
     28 C20        13.5748   -3.1483   -5.5823 C.3       1 <0>        -0.1890
     29 S1         -0.2308   -3.1355    2.2992 S.3       1 <0>         0.2525
     30 C21        -1.3410   -2.4494    1.2393 C.2       1 <0>         0.1164
     31 C22        -2.7207   -2.3149    1.4105 C.2       1 <0>        -0.0500
     32 C23        -3.5309   -1.8238    0.3367 C.1       1 <0>         0.2961
     33 N6         -4.1737   -1.4342   -0.5150 N.1       1 <0>        -0.4512
     34 C24        -3.3396   -2.6767    2.6902 C.2       1 <0>         0.4413
     35 O3         -2.5739   -3.1409    3.7050 O.3       1 <0>        -0.7324
     36 N7         -4.6306   -2.5509    2.8504 N.2       1 <0>        -0.6841
     37 C25        -5.2488   -2.9122    4.1285 C.3       1 <0>         0.0469
     38 C26        -5.8384   -1.6606    4.7818 C.3       1 <0>         0.4442
     39 F1         -6.8050   -1.1048    3.9369 F         1 <0>        -0.1892
     40 F2         -6.4287   -2.0057    6.0023 F         1 <0>        -0.2049
     41 F3         -4.8204   -0.7269    5.0036 F         1 <0>        -0.1894
     42 H2         -2.4990   -3.0852   -1.4078 H         1 <0>         0.0637
     43 H3         -2.2411   -1.9866   -2.7844 H         1 <0>         0.0738
     44 H4         -0.9468   -3.0991   -2.2790 H         1 <0>         0.0574
     45 H5         -0.4895   -0.7895   -1.5010 H         1 <0>         0.0949
     46 H6         -2.0416   -0.7756   -0.6298 H         1 <0>         0.0928
     47 H7          2.7624   -3.7158    2.5607 H         1 <0>         0.1717
     48 H8          3.3240   -2.5139   -0.1076 H         1 <0>         0.4275
     49 H9          4.3544   -4.1505    2.9379 H         1 <0>         0.1418
     50 H10         6.6632   -4.7658    3.4870 H         1 <0>         0.1340
     51 H11         5.6349   -2.5280   -0.8053 H         1 <0>         0.1372
     52 H12        10.4709   -3.7981    0.3304 H         1 <0>         0.1751
     53 H13        10.6774   -2.8888   -1.5968 H         1 <0>         0.4024
     54 H14         9.5738   -2.4725   -4.1630 H         1 <0>         0.0875
     55 H15         9.8113   -0.8866   -3.3905 H         1 <0>         0.0898
     56 H16        12.1897   -1.3518   -3.0637 H         1 <0>         0.1373
     57 H17        11.9849   -3.0069   -3.6857 H         1 <0>         0.1382
     58 H18        10.4556    0.0707   -4.8325 H         1 <0>         0.1348
     59 H19        12.1614    0.5128   -4.5812 H         1 <0>         0.1312
     60 H20        11.2967    1.4694   -6.6992 H         1 <0>         0.1076
     61 H21        12.5807    0.2775   -7.0138 H         1 <0>         0.0799
     62 H22        10.8749   -0.1646   -7.2651 H         1 <0>         0.0818
     63 H23        13.4135   -1.1973   -6.4814 H         1 <0>         0.1348
     64 H24        13.8775   -1.1790   -4.7631 H         1 <0>         0.1303
     65 H25        12.8654   -3.6468   -6.2429 H         1 <0>         0.0809
     66 H26        14.5850   -3.2759   -5.9712 H         1 <0>         0.1065
     67 H27        13.5114   -3.5847   -4.5854 H         1 <0>         0.0801
     68 H28        -6.0419   -3.6397    3.9556 H         1 <0>         0.0784
     69 H29        -4.4957   -3.3453    4.7868 H         1 <0>         0.0825
     70 H30        11.2484   -2.0133   -5.7633 H         1 <0>         0.4252
@<TRIPOS>BOND
     1    1    2 1
     2    1   42 1
     3    1   43 1
     4    1   44 1
     5    2    3 1
     6    2   45 1
     7    2   46 1
     8    3   30 1
     9    3    4 am
    10    4    5 2
    11    4    6 1
    12    6    7 2
    13    6   29 1
    14    7    8 1
    15    7   47 1
    16    8    9 1
    17    8   48 1
    18    9   14 ar
    19    9   10 ar
    20   10   11 ar
    21   10   49 1
    22   11   12 ar
    23   11   50 1
    24   12   17 1
    25   12   13 ar
    26   13   14 ar
    27   13   15 1
    28   14   51 1
    29   15   16 2
    30   15   19 1
    31   16   17 1
    32   16   52 1
    33   17   18 1
    34   19   20 2
    35   19   21 am
    36   21   22 1
    37   21   53 1
    38   22   23 1
    39   22   54 1
    40   22   55 1
    41   23   24 1
    42   23   56 1
    43   23   57 1
    44   24   25 1
    45   24   27 1
    46   24   70 1
    47   25   26 1
    48   25   58 1
    49   25   59 1
    50   26   60 1
    51   26   61 1
    52   26   62 1
    53   27   28 1
    54   27   63 1
    55   27   64 1
    56   28   65 1
    57   28   66 1
    58   28   67 1
    59   29   30 1
    60   30   31 2
    61   31   32 1
    62   31   34 1
    63   32   33 3
    64   34   35 1
    65   34   36 2
    66   36   37 1
    67   37   38 1
    68   37   68 1
    69   37   69 1
    70   38   39 1
    71   38   40 1
    72   38   41 1
@<TRIPOS>MOLECULE
CHEMBL475881__2
   71    73     0     0     0
SMALL
USER_CHARGES

@<TRIPOS>ATOM
      1 C1          1.6493    0.7336    2.3811 C.3       1 <0>        -0.1682
      2 C2          1.8963    1.8079    1.3201 C.3       1 <0>         0.0798
      3 N1          2.3311    1.1724    0.0738 N.am      1 <0>        -0.5453
      4 C3          1.4467    0.9056   -0.8758 C.2       1 <0>         0.5676
      5 O1          0.2641    1.1718   -0.7542 O.2       1 <0>        -0.4913
      6 C4          1.9685    0.2876   -2.0483 C.2       1 <0>        -0.4218
      7 C5          1.3214   -0.1012   -3.1764 C.2       1 <0>         0.3181
      8 N2          2.0190   -0.6834   -4.1987 N.pl3     1 <0>        -0.6267
      9 C6          1.3523   -1.0840   -5.3612 C.ar      1 <0>         0.1387
     10 C7         -0.0221   -0.8840   -5.4787 C.ar      1 <0>        -0.1345
     11 C8         -0.6913   -1.2728   -6.6171 C.ar      1 <0>        -0.0766
     12 C9          0.0039   -1.8718   -7.6634 C.ar      1 <0>         0.0653
     13 C10         1.3883   -2.0741   -7.5469 C.ar      1 <0>        -0.0262
     14 C11         2.0596   -1.6731   -6.3949 C.ar      1 <0>        -0.1041
     15 C12         1.8096   -2.7183   -8.8046 C.2       1 <0>        -0.2449
     16 C13         0.6855   -2.8541   -9.5652 C.2       1 <0>         0.1288
     17 N3         -0.3826   -2.3567   -8.8974 N.pl3     1 <0>        -0.5673
     18 H1         -1.2907   -2.3429   -9.2379 H         1 <0>         0.4272
     19 C14         3.1717   -3.1317   -9.1673 C.2       1 <0>         0.6016
     20 O2          4.0899   -2.9497   -8.3901 O.2       1 <0>        -0.5257
     21 N4          3.4043   -3.7125  -10.3611 N.am      1 <0>        -0.7362
     22 C15         4.7628   -4.1247  -10.7228 C.3       1 <0>         0.0996
     23 C16         4.7509   -4.7517  -12.1184 C.3       1 <0>        -0.0262
     24 N5          6.1287   -5.0440  -12.5356 N.4       1 <0>        -0.3824
     25 C17         6.6993   -6.0721  -11.6550 C.3       1 <0>        -0.0184
     26 C18         8.1720   -6.2871  -12.0095 C.3       1 <0>        -0.1888
     27 C19         6.1277   -5.5318  -13.9213 C.3       1 <0>        -0.0152
     28 C20         5.6710   -4.4103  -14.8564 C.3       1 <0>        -0.1891
     29 S1          3.7003    0.1619   -1.6375 S.3       1 <0>         0.2349
     30 C21         3.6497    0.8611   -0.1093 C.2       1 <0>         0.2197
     31 C22         4.7144    1.0734    0.7750 C.2       1 <0>        -0.2065
     32 C23         4.4609    1.5646    2.0960 C.1       1 <0>         0.2581
     33 N6          4.2597    1.9543    3.1439 N.1       1 <0>        -0.4107
     34 C24         6.0437    0.8020    0.3624 C.2       1 <0>         0.6033
     35 O3          6.2593    0.3842   -0.7611 O.2       1 <0>        -0.5326
     36 N7          7.0685    1.0064    1.2136 N.am      1 <0>        -0.7290
     37 C25         8.4418    0.7260    0.7874 C.3       1 <0>         0.0828
     38 C26         9.4057    1.0403    1.9332 C.3       1 <0>         0.4460
     39 F1          9.0894    0.2453    3.0401 F         1 <0>        -0.1770
     40 F2         10.7171    0.7726    1.5262 F         1 <0>        -0.1710
     41 F3          9.2919    2.3906    2.2812 F         1 <0>        -0.1769
     42 H2          0.8753    0.0498    2.0326 H         1 <0>         0.0655
     43 H3          2.5709    0.1792    2.5583 H         1 <0>         0.0612
     44 H4          1.3258    1.2064    3.3084 H         1 <0>         0.0829
     45 H5          0.9746    2.3623    1.1430 H         1 <0>         0.1081
     46 H6          2.6703    2.4916    1.6686 H         1 <0>         0.0961
     47 H7          0.2558    0.0493   -3.2668 H         1 <0>         0.1844
     48 H8          2.9761   -0.8185   -4.1175 H         1 <0>         0.4197
     49 H9         -0.5668   -0.4203   -4.6695 H         1 <0>         0.1411
     50 H10        -1.7563   -1.1133   -6.6982 H         1 <0>         0.1378
     51 H11         3.1253   -1.8249   -6.3066 H         1 <0>         0.1422
     52 H12         0.6523   -3.2922  -10.5518 H         1 <0>         0.1793
     53 H13         2.6722   -3.8575  -10.9807 H         1 <0>         0.4035
     54 H14         5.4191   -3.2545  -10.7210 H         1 <0>         0.0886
     55 H15         5.1256   -4.8550   -9.9995 H         1 <0>         0.0910
     56 H16         4.1740   -5.6762  -12.0965 H         1 <0>         0.1377
     57 H17         4.2970   -4.0568  -12.8250 H         1 <0>         0.1385
     58 H18         6.6190   -5.7472  -10.6176 H         1 <0>         0.1339
     59 H19         6.1538   -7.0065  -11.7864 H         1 <0>         0.1314
     60 H20         8.2524   -6.6119  -13.0468 H         1 <0>         0.0807
     61 H21         8.7176   -5.3526  -11.8781 H         1 <0>         0.0820
     62 H22         8.5954   -7.0499  -11.3561 H         1 <0>         0.1081
     63 H23         7.1343   -5.8470  -14.1962 H         1 <0>         0.1358
     64 H24         5.4457   -6.3777  -14.0082 H         1 <0>         0.1308
     65 H25         5.7783   -4.7342  -15.8917 H         1 <0>         0.1075
     66 H26         4.6261   -4.1732  -14.6563 H         1 <0>         0.0797
     67 H27         6.2834   -3.5245  -14.6876 H         1 <0>         0.0809
     68 H28         6.8967    1.3391    2.1084 H         1 <0>         0.4080
     69 H29         8.5304   -0.3260    0.5163 H         1 <0>         0.1196
     70 H30         8.6882    1.3454   -0.0750 H         1 <0>         0.1196
     71 H31         6.6839   -4.2036  -12.4753 H         1 <0>         0.4252
@<TRIPOS>BOND
     1    1    2 1
     2    1   42 1
     3    1   43 1
     4    1   44 1
     5    2    3 1
     6    2   45 1
     7    2   46 1
     8    3   30 1
     9    3    4 am
    10    4    5 2
    11    4    6 1
    12    6    7 2
    13    6   29 1
    14    7    8 1
    15    7   47 1
    16    8    9 1
    17    8   48 1
    18    9   14 ar
    19    9   10 ar
    20   10   11 ar
    21   10   49 1
    22   11   12 ar
    23   11   50 1
    24   12   17 1
    25   12   13 ar
    26   13   14 ar
    27   13   15 1
    28   14   51 1
    29   15   16 2
    30   15   19 1
    31   16   17 1
    32   16   52 1
    33   17   18 1
    34   19   20 2
    35   19   21 am
    36   21   22 1
    37   21   53 1
    38   22   23 1
    39   22   54 1
    40   22   55 1
    41   23   24 1
    42   23   56 1
    43   23   57 1
    44   24   25 1
    45   24   27 1
    46   24   71 1
    47   25   26 1
    48   25   58 1
    49   25   59 1
    50   26   60 1
    51   26   61 1
    52   26   62 1
    53   27   28 1
    54   27   63 1
    55   27   64 1
    56   28   65 1
    57   28   66 1
    58   28   67 1
    59   29   30 1
    60   30   31 2
    61   31   32 1
    62   31   34 1
    63   32   33 3
    64   34   35 2
    65   34   36 am
    66   36   37 1
    67   36   68 1
    68   37   38 1
    69   37   69 1
    70   37   70 1
    71   38   39 1
    72   38   40 1
    73   38   41 1
@<TRIPOS>MOLECULE
CHEMBL475881__3
   70    72     0     0     0
SMALL
USER_CHARGES

@<TRIPOS>ATOM
      1 C1         -2.7551    0.9116   -0.4145 C.3       1 <0>        -0.1640
      2 C2         -2.0093    1.9668    0.4048 C.3       1 <0>         0.0857
      3 N1         -1.2488    1.3097    1.4707 N.am      1 <0>        -0.5482
      4 C3          0.0315    1.0218    1.2889 C.2       1 <0>         0.5690
      5 O1          0.6150    1.2859    0.2526 O.2       1 <0>        -0.5230
      6 C4          0.6818    0.3839    2.3840 C.2       1 <0>        -0.3989
      7 C5          1.9697   -0.0284    2.4975 C.2       1 <0>         0.2645
      8 N2          2.3972   -0.6274    3.6510 N.pl3     1 <0>        -0.6376
      9 C6          3.7247   -1.0523    3.7679 C.ar      1 <0>         0.1651
     10 C7          4.6123   -0.8598    2.7106 C.ar      1 <0>        -0.1393
     11 C8          5.9215   -1.2729    2.8117 C.ar      1 <0>        -0.0784
     12 C9          6.3697   -1.8888    3.9764 C.ar      1 <0>         0.0516
     13 C10         5.4772   -2.0832    5.0426 C.ar      1 <0>        -0.0213
     14 C11         4.1557   -1.6581    4.9355 C.ar      1 <0>        -0.1217
     15 C12         6.2548   -2.7491    6.1040 C.2       1 <0>        -0.2457
     16 C13         7.5197   -2.9037    5.6177 C.2       1 <0>         0.1217
     17 N3          7.5936   -2.3982    4.3634 N.pl3     1 <0>        -0.5683
     18 H1          8.3932   -2.3948    3.8143 H         1 <0>         0.4235
     19 C14         5.7640   -3.1635    7.4250 C.2       1 <0>         0.5992
     20 O2          4.6042   -2.9632    7.7334 O.2       1 <0>        -0.5209
     21 N4          6.5985   -3.7655    8.2955 N.am      1 <0>        -0.7381
     22 C15         6.1090   -4.1788    9.6130 C.3       1 <0>         0.0991
     23 C16         7.2481   -4.8317   10.3984 C.3       1 <0>        -0.0253
     24 N5          6.7944   -5.1282   11.7638 N.4       1 <0>        -0.3825
     25 C17         5.7311   -6.1407   11.7175 C.3       1 <0>        -0.0188
     26 C18         5.1727   -6.3586   13.1251 C.3       1 <0>        -0.1883
     27 C19         7.9223   -5.6384   12.5547 C.3       1 <0>        -0.0146
     28 C20         8.9646   -4.5320   12.7293 C.3       1 <0>        -0.1890
     29 S1         -0.6495    0.2718    3.5667 S.3       1 <0>         0.2168
     30 C21        -1.8606    0.9991    2.6551 C.2       1 <0>         0.1260
     31 C22        -3.1882    1.2315    3.0219 C.2       1 <0>        -0.0501
     32 C23        -4.1175    1.7437    2.0604 C.1       1 <0>         0.2948
     33 N6         -4.8547    2.1501    1.2976 N.1       1 <0>        -0.4480
     34 C24        -3.6304    0.9509    4.3921 C.2       1 <0>         0.4426
     35 O3         -2.7521    0.4668    5.3009 O.3       1 <0>        -0.7350
     36 N7         -4.8726    1.1684    4.7353 N.2       1 <0>        -0.6836
     37 C25        -5.3143    0.8882    6.1037 C.3       1 <0>         0.0475
     38 C26        -5.7205    2.1958    6.7864 C.3       1 <0>         0.4441
     39 F1         -6.7659    2.7899    6.0714 F         1 <0>        -0.1884
     40 F2         -6.1423    1.9282    8.0932 F         1 <0>        -0.2058
     41 F3         -4.6247    3.0649    6.8188 F         1 <0>        -0.1894
     42 H2         -3.4383    0.3637    0.2345 H         1 <0>         0.0624
     43 H3         -3.3209    1.4005   -1.2076 H         1 <0>         0.0748
     44 H4         -2.0375    0.2189   -0.8542 H         1 <0>         0.0590
     45 H5         -1.3261    2.5147   -0.2443 H         1 <0>         0.0972
     46 H6         -2.7269    2.6595    0.8444 H         1 <0>         0.0924
     47 H7          2.6573    0.1162    1.6772 H         1 <0>         0.1705
     48 H8          1.7797   -0.7572    4.3877 H         1 <0>         0.4198
     49 H9          4.2699   -0.3827    1.8042 H         1 <0>         0.1405
     50 H10         6.6012   -1.1193    1.9865 H         1 <0>         0.1328
     51 H11         3.4700   -1.8037    5.7571 H         1 <0>         0.1406
     52 H12         8.3394   -3.3602    6.1527 H         1 <0>         0.1752
     53 H13         7.5231   -3.9251    8.0496 H         1 <0>         0.4019
     54 H14         5.7467   -3.3060   10.1562 H         1 <0>         0.0884
     55 H15         5.2956   -4.8939    9.4904 H         1 <0>         0.0905
     56 H16         7.5456   -5.7573    9.9054 H         1 <0>         0.1369
     57 H17         8.0988   -4.1515   10.4379 H         1 <0>         0.1378
     58 H18         4.9327   -5.7992   11.0587 H         1 <0>         0.1355
     59 H19         6.1384   -7.0783   11.3390 H         1 <0>         0.1309
     60 H20         4.3837   -7.1099   13.0908 H         1 <0>         0.1079
     61 H21         5.9711   -6.7001   13.7839 H         1 <0>         0.0794
     62 H22         4.7654   -5.4211   13.5036 H         1 <0>         0.0824
     63 H23         7.5646   -5.9583   13.5333 H         1 <0>         0.1348
     64 H24         8.3744   -6.4853   12.0384 H         1 <0>         0.1299
     65 H25         8.4862   -3.6442   13.1428 H         1 <0>         0.0811
     66 H26         9.7463   -4.8731   13.4080 H         1 <0>         0.1061
     67 H27         9.4038   -4.2906   11.7613 H         1 <0>         0.0799
     68 H28        -6.1681    0.2110    6.0785 H         1 <0>         0.0781
     69 H29        -4.4997    0.4253    6.6608 H         1 <0>         0.0811
     70 H30         6.4384   -4.2859   12.1902 H         1 <0>         0.4256
@<TRIPOS>BOND
     1    1    2 1
     2    1   42 1
     3    1   43 1
     4    1   44 1
     5    2    3 1
     6    2   45 1
     7    2   46 1
     8    3   30 1
     9    3    4 am
    10    4    5 2
    11    4    6 1
    12    6    7 2
    13    6   29 1
    14    7    8 1
    15    7   47 1
    16    8    9 1
    17    8   48 1
    18    9   14 ar
    19    9   10 ar
    20   10   11 ar
    21   10   49 1
    22   11   12 ar
    23   11   50 1
    24   12   17 1
    25   12   13 ar
    26   13   14 ar
    27   13   15 1
    28   14   51 1
    29   15   16 2
    30   15   19 1
    31   16   17 1
    32   16   52 1
    33   17   18 1
    34   19   20 2
    35   19   21 am
    36   21   22 1
    37   21   53 1
    38   22   23 1
    39   22   54 1
    40   22   55 1
    41   23   24 1
    42   23   56 1
    43   23   57 1
    44   24   25 1
    45   24   27 1
    46   24   70 1
    47   25   26 1
    48   25   58 1
    49   25   59 1
    50   26   60 1
    51   26   61 1
    52   26   62 1
    53   27   28 1
    54   27   63 1
    55   27   64 1
    56   28   65 1
    57   28   66 1
    58   28   67 1
    59   29   30 1
    60   30   31 2
    61   31   32 1
    62   31   34 1
    63   32   33 3
    64   34   35 1
    65   34   36 2
    66   36   37 1
    67   37   38 1
    68   37   68 1
    69   37   69 1
    70   38   39 1
    71   38   40 1
    72   38   41 1
@<TRIPOS>MOLECULE
CHEMBL428496
   55    59     0     0     0
SMALL
USER_CHARGES

@<TRIPOS>ATOM
      1 C1         -0.0184    1.5028    0.0103 C.3       1 <0>        -0.1511
      2 C2          0.0021   -0.0041    0.0020 C.2       1 <0>         0.4597
      3 O1          1.0565   -0.5939   -0.0112 O.2       1 <0>        -0.4999
      4 O2         -1.1511   -0.6910    0.0093 O.3       1 <0>        -0.3474
      5 C3         -1.0568   -2.1201    0.0008 C.3       1 <0>         0.1219
      6 H1         -0.1268   -2.3839    0.5135 H         1 <0>         0.1078
      7 C4         -0.9300   -2.5524   -1.4583 C.3       1 <0>        -0.1184
      8 C5         -1.5070   -3.9418   -1.6157 C.3       1 <0>        -0.1187
      9 C6         -3.0076   -3.8238   -1.2599 C.3       1 <0>        -0.0498
     10 H2         -3.4688   -3.0269   -1.8517 H         1 <0>         0.1063
     11 C7         -3.5424   -5.1804   -1.7235 C.3       1 <0>        -0.1009
     12 C8         -2.7629   -5.4191   -3.0462 C.3       1 <0>        -0.1830
     13 C9         -1.5465   -4.4997   -3.0127 C.2       1 <0>         0.3855
     14 O3         -0.7805   -4.2605   -3.9130 O.2       1 <0>        -0.4254
     15 C10        -3.1349   -3.4967    0.1921 C.2       1 <0>        -0.1113
     16 C11        -2.2157   -2.7096    0.7678 C.2       1 <0>        -0.0220
     17 C12        -2.2470   -2.4186    2.2520 C.3       1 <0>        -0.0027
     18 C13        -3.5419   -2.8944    2.8428 C.2       1 <0>        -0.1255
     19 C14        -4.0137   -2.4591    4.1090 C.2       1 <0>        -0.2743
     20 C15        -5.1338   -3.1850    4.3420 C.2       1 <0>         0.1107
     21 O4         -5.3667   -3.9750    3.2644 O.3       1 <0>        -0.1272
     22 C16        -4.4651   -3.7201    2.3152 C.2       1 <0>        -0.0593
     23 C17        -4.2994   -4.0888    0.9041 C.2       1 <0>         0.4739
     24 O5         -5.0852   -4.8388    0.3501 O.2       1 <0>        -0.4050
     25 C18        -3.2587   -1.3792    4.7707 C.2       1 <0>         0.5710
     26 O6         -3.4416   -1.0831    5.9367 O.2       1 <0>        -0.4406
     27 O7         -2.3673   -0.7035    4.0022 O.3       1 <0>        -0.3342
     28 C19        -2.1782   -0.9381    2.6104 C.3       1 <0>         0.1418
     29 H3         -1.2274   -0.5290    2.3161 H         1 <0>         0.1331
     30 C20        -3.3080   -0.2057    1.8834 C.3       1 <0>         0.0325
     31 O8         -3.1902    1.1997    2.1137 O.3       1 <0>        -0.3752
     32 C21        -4.2027    1.9802    1.4751 C.3       1 <0>         0.0299
     33 C22        -1.0932   -3.1555    2.9462 C.3       1 <0>        -0.1410
     34 C23        -0.7898   -4.9340   -0.7021 C.3       1 <0>        -0.1431
     35 H4          1.0042    1.8801    0.0026 H         1 <0>         0.1053
     36 H5         -0.5455    1.8639   -0.8728 H         1 <0>         0.1024
     37 H6         -0.5286    1.8543    0.9071 H         1 <0>         0.1090
     38 H7         -1.4691   -1.8509   -2.0999 H         1 <0>         0.0889
     39 H8          0.1251   -2.5564   -1.7479 H         1 <0>         0.0943
     40 H9         -3.3312   -5.9617   -0.9953 H         1 <0>         0.0820
     41 H10        -4.6154   -5.1243   -1.9164 H         1 <0>         0.0922
     42 H11        -2.4449   -6.4590   -3.1085 H         1 <0>         0.1059
     43 H12        -3.3960   -5.1755   -3.9005 H         1 <0>         0.1025
     44 H13        -5.7345   -3.1423    5.2384 H         1 <0>         0.2359
     45 H14        -3.2413   -0.4054    0.8139 H         1 <0>         0.0819
     46 H15        -4.2692   -0.5562    2.2593 H         1 <0>         0.0526
     47 H16        -4.0433    3.0351    1.6985 H         1 <0>         0.0920
     48 H17        -4.1546    1.8258    0.3972 H         1 <0>         0.0450
     49 H18        -5.1825    1.6750    1.8425 H         1 <0>         0.0405
     50 H19        -0.1439   -2.8172    2.5309 H         1 <0>         0.0813
     51 H20        -1.1181   -2.9442    4.0152 H         1 <0>         0.0779
     52 H21        -1.1983   -4.2284    2.7854 H         1 <0>         0.0788
     53 H22        -0.9157   -4.6281    0.3365 H         1 <0>         0.0689
     54 H23        -1.2137   -5.9285   -0.8418 H         1 <0>         0.0723
     55 H24         0.2717   -4.9535   -0.9490 H         1 <0>         0.0724
@<TRIPOS>BOND
     1    1    2 1
     2    1   35 1
     3    1   36 1
     4    1   37 1
     5    2    3 2
     6    2    4 1
     7    4    5 1
     8    5    6 1
     9    5   16 1
    10    5    7 1
    11    7    8 1
    12    7   38 1
    13    7   39 1
    14    8   13 1
    15    8    9 1
    16    8   34 1
    17    9   10 1
    18    9   11 1
    19    9   15 1
    20   11   12 1
    21   11   40 1
    22   11   41 1
    23   12   13 1
    24   12   42 1
    25   12   43 1
    26   13   14 2
    27   15   23 1
    28   15   16 2
    29   16   17 1
    30   17   28 1
    31   17   18 1
    32   17   33 1
    33   18   22 2
    34   18   19 1
    35   19   20 2
    36   19   25 1
    37   20   21 1
    38   20   44 1
    39   21   22 1
    40   22   23 1
    41   23   24 2
    42   25   26 2
    43   25   27 1
    44   27   28 1
    45   28   29 1
    46   28   30 1
    47   30   31 1
    48   30   45 1
    49   30   46 1
    50   31   32 1
    51   32   47 1
    52   32   48 1
    53   32   49 1
    54   33   50 1
    55   33   51 1
    56   33   52 1
    57   34   53 1
    58   34   54 1
    59   34   55 1
@<TRIPOS>MOLECULE
CHEMBL557126
   64    68     0     0     0
SMALL
USER_CHARGES

@<TRIPOS>ATOM
      1 C1          0.2924    1.2790   -0.1308 C.3       1 <0>        -0.1775
      2 C2          0.0646   -0.2292   -0.0104 C.3       1 <0>         0.1132
      3 H1          0.5180   -0.7343   -0.8632 H         1 <0>         0.0925
      4 C3          0.6932   -0.7320    1.2636 C.ar      1 <0>        -0.0683
      5 C4         -0.0724   -0.8641    2.4070 C.ar      1 <0>        -0.0730
      6 C5          0.5040   -1.3253    3.5755 C.ar      1 <0>        -0.1130
      7 C6          1.8466   -1.6547    3.6017 C.ar      1 <0>        -0.0806
      8 C7          2.6130   -1.5230    2.4593 C.ar      1 <0>        -0.0857
      9 C8          2.0352   -1.0668    1.2876 C.ar      1 <0>        -0.0256
     10 Cl1         2.9958   -0.9074   -0.1496 Cl        1 <0>        -0.0544
     11 C9          2.4744   -2.1570    4.8763 C.3       1 <0>         0.0985
     12 N1          2.3662   -3.6210    4.9316 N.3       1 <0>        -0.5349
     13 C10         0.9628   -4.0413    5.0500 C.3       1 <0>         0.0181
     14 C11         0.8891   -5.5698    5.0444 C.3       1 <0>        -0.0022
     15 N2          1.6739   -6.1021    6.1661 N.4       1 <0>        -0.3884
     16 C12         3.0776   -5.6946    6.0208 C.3       1 <0>        -0.0022
     17 C13         3.1695   -4.1672    6.0345 C.3       1 <0>         0.0250
     18 C14         1.5880   -7.5686    6.1711 C.3       1 <0>        -0.0458
     19 O1         -1.3386   -0.4987    0.0122 O.3       1 <0>        -0.2654
     20 C15        -1.9649   -0.6067   -1.1879 C.2       1 <0>         0.2074
     21 C16        -1.2942   -0.3504   -2.3536 C.2       1 <0>        -0.2531
     22 C17        -1.9771   -0.4741   -3.5570 C.2       1 <0>         0.0161
     23 S1         -3.6073   -0.9651   -3.0209 S.3       1 <0>         0.1076
     24 C18        -3.3053   -0.9869   -1.2617 C.2       1 <0>        -0.3004
     25 C19        -4.1957   -1.3053   -0.2129 C.2       1 <0>         0.6163
     26 O2         -3.8142   -1.2651    0.9436 O.2       1 <0>        -0.5310
     27 N3         -5.4676   -1.6537   -0.4912 N.am      1 <0>        -0.8551
     28 C20        -1.4839   -0.2557   -4.9220 C.2       1 <0>        -0.0377
     29 C21        -0.1846    0.0268   -5.2952 C.2       1 <0>         0.1104
     30 N4         -0.1495    0.1535   -6.6166 N.2       1 <0>        -0.4840
     31 C22        -1.3665   -0.0338   -7.1169 C.2       1 <0>         0.2490
     32 N5         -2.2259   -0.2983   -6.0835 N.pl3     1 <0>        -0.3478
     33 C23        -3.5462   -0.5360   -6.3236 C.2       1 <0>         0.0493
     34 C24        -4.0301   -0.5185   -7.5848 C.2       1 <0>        -0.1229
     35 C25        -3.1747   -0.2547   -8.6657 C.2       1 <0>        -0.0873
     36 C26        -1.8553   -0.0074   -8.4368 C.2       1 <0>        -0.0779
     37 H2          1.3627    1.4846   -0.1480 H         1 <0>         0.0802
     38 H3         -0.1623    1.6427   -1.0523 H         1 <0>         0.0738
     39 H4         -0.1610    1.7842    0.7221 H         1 <0>         0.0746
     40 H5         -1.1210   -0.6066    2.3873 H         1 <0>         0.1490
     41 H6         -0.0944   -1.4280    4.4687 H         1 <0>         0.1277
     42 H7          3.6618   -1.7801    2.4799 H         1 <0>         0.1382
     43 H8          3.5254   -1.8691    4.9016 H         1 <0>         0.1001
     44 H9          1.9578   -1.7219    5.7318 H         1 <0>         0.0607
     45 H10         0.5466   -3.6605    5.9827 H         1 <0>         0.0624
     46 H11         0.3928   -3.6466    4.2090 H         1 <0>         0.1272
     47 H12        -0.1497   -5.8838    5.1465 H         1 <0>         0.1361
     48 H13         1.2929   -5.9496    4.1059 H         1 <0>         0.1375
     49 H14         3.6612   -6.1011    6.8468 H         1 <0>         0.1363
     50 H15         3.4702   -6.0738    5.0773 H         1 <0>         0.1377
     51 H16         4.2094   -3.8643    5.9118 H         1 <0>         0.1249
     52 H17         2.7896   -3.7885    6.9834 H         1 <0>         0.0620
     53 H18         1.9834   -7.9589    5.2333 H         1 <0>         0.1229
     54 H19         2.1703   -7.9638    7.0034 H         1 <0>         0.1243
     55 H20         0.5466   -7.8712    6.2802 H         1 <0>         0.1242
     56 H21        -0.2548   -0.0574   -2.3379 H         1 <0>         0.1560
     57 H22        -5.7713   -1.6857   -1.4119 H         1 <0>         0.3975
     58 H23        -6.0793   -1.8724    0.2291 H         1 <0>         0.4081
     59 H24         0.6580    0.1276   -4.6272 H         1 <0>         0.1914
     60 H25        -4.2117   -0.7407   -5.4980 H         1 <0>         0.1600
     61 H26        -5.0784   -0.7085   -7.7618 H         1 <0>         0.1608
     62 H27        -3.5623   -0.2416   -9.6737 H         1 <0>         0.1533
     63 H28        -1.1877    0.1952   -9.2613 H         1 <0>         0.1615
     64 H29         1.3072   -5.7412    7.0341 H         1 <0>         0.4224
@<TRIPOS>BOND
     1    1    2 1
     2    1   37 1
     3    1   38 1
     4    1   39 1
     5    2    3 1
     6    2    4 1
     7    2   19 1
     8    4    9 ar
     9    4    5 ar
    10    5    6 ar
    11    5   40 1
    12    6    7 ar
    13    6   41 1
    14    7    8 ar
    15    7   11 1
    16    8    9 ar
    17    8   42 1
    18    9   10 1
    19   11   12 1
    20   11   43 1
    21   11   44 1
    22   12   17 1
    23   12   13 1
    24   13   14 1
    25   13   45 1
    26   13   46 1
    27   14   15 1
    28   14   47 1
    29   14   48 1
    30   15   16 1
    31   15   18 1
    32   15   64 1
    33   16   17 1
    34   16   49 1
    35   16   50 1
    36   17   51 1
    37   17   52 1
    38   18   53 1
    39   18   54 1
    40   18   55 1
    41   19   20 1
    42   20   24 2
    43   20   21 1
    44   21   22 2
    45   21   56 1
    46   22   23 1
    47   22   28 1
    48   23   24 1
    49   24   25 1
    50   25   26 2
    51   25   27 am
    52   27   57 1
    53   27   58 1
    54   28   32 1
    55   28   29 2
    56   29   30 1
    57   29   59 1
    58   30   31 2
    59   31   36 1
    60   31   32 1
    61   32   33 1
    62   33   34 2
    63   33   60 1
    64   34   35 1
    65   34   61 1
    66   35   36 2
    67   35   62 1
    68   36   63 1
@<TRIPOS>MOLECULE
CHEMBL557126__1
   65    69     0     0     0
SMALL
USER_CHARGES

@<TRIPOS>ATOM
      1 C1         -0.2902    1.2714   -0.1875 C.3       1 <0>        -0.1797
      2 C2         -0.0343   -0.2303   -0.0452 C.3       1 <0>         0.1161
      3 H1         -0.9866   -0.7594   -0.0096 H         1 <0>         0.0896
      4 C3          0.7673   -0.7173   -1.2248 C.ar      1 <0>        -0.0772
      5 C4          2.1431   -0.8146   -1.1329 C.ar      1 <0>        -0.0728
      6 C5          2.8784   -1.2613   -2.2147 C.ar      1 <0>        -0.1105
      7 C6          2.2384   -1.6110   -3.3893 C.ar      1 <0>        -0.0728
      8 C7          0.8630   -1.5141   -3.4824 C.ar      1 <0>        -0.0842
      9 C8          0.1259   -1.0724   -2.3978 C.ar      1 <0>        -0.0237
     10 Cl1        -1.6025   -0.9568   -2.5117 Cl        1 <0>        -0.0601
     11 C9          3.0409   -2.0974   -4.5685 C.3       1 <0>         0.0951
     12 N1          3.1796   -3.5581   -4.4973 N.3       1 <0>        -0.5352
     13 C10         3.9940   -3.9541   -3.3397 C.3       1 <0>         0.0178
     14 C11         4.0643   -5.4810   -3.2677 C.3       1 <0>        -0.0018
     15 N2          4.6567   -6.0030   -4.5063 N.4       1 <0>        -0.3886
     16 C12         3.8193   -5.6204   -5.6507 C.3       1 <0>        -0.0023
     17 C13         3.7468   -4.0946   -5.7426 C.3       1 <0>         0.0247
     18 C14         4.7407   -7.4675   -4.4293 C.3       1 <0>        -0.0462
     19 O1          0.6932   -0.4774    1.1597 O.3       1 <0>        -0.2592
     20 C15        -0.0301   -0.5996    2.3025 C.2       1 <0>         0.1843
     21 C16        -1.3810   -0.3771    2.3036 C.2       1 <0>        -0.1883
     22 C17        -2.0785   -0.5142    3.4970 C.2       1 <0>        -0.0820
     23 S1         -0.7874   -0.9690    4.6426 S.3       1 <0>         0.1601
     24 C18         0.5854   -0.9604    3.5015 C.2       1 <0>        -0.2494
     25 C19         1.9464   -1.2438    3.7495 C.2       1 <0>         0.6066
     26 O2          2.7561   -1.1864    2.8407 O.2       1 <0>        -0.5106
     27 N3          2.3497   -1.5778    4.9914 N.am      1 <0>        -0.8488
     28 C20        -3.5123   -0.3309    3.7516 C.2       1 <0>         0.0725
     29 C21        -4.4919   -0.0762    2.8120 C.2       1 <0>         0.1130
     30 N4         -5.6567    0.0235    3.4418 N.pl3     1 <0>        -0.4956
     31 C22        -5.4770   -0.1548    4.7465 C.cat     1 <0>         0.3077
     32 N5         -4.1462   -0.3851    4.9750 N.pl3     1 <0>        -0.3218
     33 C23        -3.6883   -0.6070    6.2393 C.2       1 <0>         0.0780
     34 C24        -4.5388   -0.6072    7.2889 C.2       1 <0>        -0.0958
     35 C25        -5.9088   -0.3784    7.0876 C.2       1 <0>        -0.0130
     36 C26        -6.3762   -0.1472    5.8296 C.2       1 <0>        -0.1149
     37 H2          0.6621    1.8005   -0.2230 H         1 <0>         0.0799
     38 H3         -0.8451    1.4599   -1.1065 H         1 <0>         0.0839
     39 H4         -0.8699    1.6236    0.6657 H         1 <0>         0.0694
     40 H5          2.6437   -0.5413   -0.2157 H         1 <0>         0.1489
     41 H6          3.9534   -1.3368   -2.1426 H         1 <0>         0.1306
     42 H7          0.3632   -1.7870   -4.4000 H         1 <0>         0.1405
     43 H8          2.5304   -1.8255   -5.4924 H         1 <0>         0.1018
     44 H9          4.0288   -1.6373   -4.5503 H         1 <0>         0.0628
     45 H10         4.9999   -3.5483   -3.4468 H         1 <0>         0.0635
     46 H11         3.5407   -3.5674   -2.4269 H         1 <0>         0.1249
     47 H12         4.6797   -5.7767   -2.4179 H         1 <0>         0.1362
     48 H13         3.0595   -5.8857   -3.1468 H         1 <0>         0.1366
     49 H14         4.2529   -6.0193   -6.5677 H         1 <0>         0.1380
     50 H15         2.8157   -6.0244   -5.5177 H         1 <0>         0.1376
     51 H16         3.1133   -3.8105   -6.5828 H         1 <0>         0.1258
     52 H17         4.7487   -3.6911   -5.8893 H         1 <0>         0.0638
     53 H18         3.7410   -7.8826   -4.3015 H         1 <0>         0.1228
     54 H19         5.1803   -7.8551   -5.3483 H         1 <0>         0.1258
     55 H20         5.3632   -7.7517   -3.5808 H         1 <0>         0.1247
     56 H21        -1.8942   -0.1002    1.3945 H         1 <0>         0.1622
     57 H22         1.7052   -1.6235    5.7148 H         1 <0>         0.3976
     58 H23         3.2846   -1.7725    5.1617 H         1 <0>         0.4154
     59 H24        -4.3371    0.0248    1.7479 H         1 <0>         0.2356
     60 H25        -2.6357   -0.7847    6.4036 H         1 <0>         0.1893
     61 H26        -4.1634   -0.7844    8.2860 H         1 <0>         0.1900
     62 H27        -6.5882   -0.3795    7.9271 H         1 <0>         0.1822
     63 H28        -7.4287    0.0285    5.6630 H         1 <0>         0.1866
     64 H29         5.5824   -5.6191   -4.6239 H         1 <0>         0.4233
     65 H30        -6.5093    0.2003    3.0144 H         1 <0>         0.4694
@<TRIPOS>BOND
     1    1    2 1
     2    1   37 1
     3    1   38 1
     4    1   39 1
     5    2    3 1
     6    2    4 1
     7    2   19 1
     8    4    9 ar
     9    4    5 ar
    10    5    6 ar
    11    5   40 1
    12    6    7 ar
    13    6   41 1
    14    7    8 ar
    15    7   11 1
    16    8    9 ar
    17    8   42 1
    18    9   10 1
    19   11   12 1
    20   11   43 1
    21   11   44 1
    22   12   17 1
    23   12   13 1
    24   13   14 1
    25   13   45 1
    26   13   46 1
    27   14   15 1
    28   14   47 1
    29   14   48 1
    30   15   16 1
    31   15   18 1
    32   15   64 1
    33   16   17 1
    34   16   49 1
    35   16   50 1
    36   17   51 1
    37   17   52 1
    38   18   53 1
    39   18   54 1
    40   18   55 1
    41   19   20 1
    42   20   24 2
    43   20   21 1
    44   21   22 2
    45   21   56 1
    46   22   23 1
    47   22   28 1
    48   23   24 1
    49   24   25 1
    50   25   26 2
    51   25   27 am
    52   27   57 1
    53   27   58 1
    54   28   32 1
    55   28   29 2
    56   29   30 1
    57   29   59 1
    58   30   31 2
    59   30   65 1
    60   31   36 1
    61   31   32 1
    62   32   33 1
    63   33   34 2
    64   33   60 1
    65   34   35 1
    66   34   61 1
    67   35   36 2
    68   35   62 1
    69   36   63 1
@<TRIPOS>MOLECULE
CHEMBL557126__2
   64    68     0     0     0
SMALL
USER_CHARGES

@<TRIPOS>ATOM
      1 C1         -0.2902    1.2714   -0.1875 C.3       1 <0>        -0.1786
      2 C2         -0.0343   -0.2303   -0.0452 C.3       1 <0>         0.1075
      3 H1         -0.9866   -0.7594   -0.0096 H         1 <0>         0.0966
      4 C3          0.7673   -0.7173   -1.2248 C.ar      1 <0>        -0.0423
      5 C4          2.1431   -0.8146   -1.1329 C.ar      1 <0>        -0.0704
      6 C5          2.8784   -1.2613   -2.2147 C.ar      1 <0>        -0.0906
      7 C6          2.2384   -1.6110   -3.3893 C.ar      1 <0>        -0.1478
      8 C7          0.8630   -1.5141   -3.4824 C.ar      1 <0>        -0.0859
      9 C8          0.1259   -1.0724   -2.3978 C.ar      1 <0>        -0.0286
     10 Cl1        -1.6025   -0.9568   -2.5117 Cl        1 <0>        -0.0382
     11 C9          3.0409   -2.0974   -4.5685 C.3       1 <0>         0.0467
     12 N1          3.1796   -3.5581   -4.4973 N.4       1 <0>        -0.3861
     13 C10         3.9699   -3.9174   -3.3125 C.3       1 <0>        -0.0085
     14 C11         4.0988   -5.4399   -3.2276 C.3       1 <0>         0.0262
     15 N2          4.7524   -5.9420   -4.4445 N.3       1 <0>        -0.5429
     16 C12         3.9853   -5.5682   -5.6412 C.3       1 <0>         0.0242
     17 C13         3.8574   -4.0447   -5.7062 C.3       1 <0>        -0.0024
     18 C14         4.9459   -7.3966   -4.3763 C.3       1 <0>         0.0195
     19 O1          0.6932   -0.4774    1.1597 O.3       1 <0>        -0.2665
     20 C15        -0.0301   -0.5996    2.3025 C.2       1 <0>         0.2042
     21 C16        -1.3810   -0.3771    2.3036 C.2       1 <0>        -0.2559
     22 C17        -2.0785   -0.5142    3.4970 C.2       1 <0>         0.0180
     23 S1         -0.7874   -0.9690    4.6426 S.3       1 <0>         0.1142
     24 C18         0.5854   -0.9604    3.5015 C.2       1 <0>        -0.2976
     25 C19         1.9464   -1.2438    3.7495 C.2       1 <0>         0.6164
     26 O2          2.7561   -1.1864    2.8407 O.2       1 <0>        -0.5326
     27 N3          2.3497   -1.5778    4.9914 N.am      1 <0>        -0.8537
     28 C20        -3.5123   -0.3309    3.7516 C.2       1 <0>        -0.0402
     29 C21        -4.4919   -0.0762    2.8120 C.2       1 <0>         0.1110
     30 N4         -5.6567    0.0235    3.4418 N.2       1 <0>        -0.4840
     31 C22        -5.4770   -0.1548    4.7465 C.2       1 <0>         0.2505
     32 N5         -4.1462   -0.3851    4.9750 N.pl3     1 <0>        -0.3474
     33 C23        -3.6883   -0.6070    6.2393 C.2       1 <0>         0.0484
     34 C24        -4.5388   -0.6072    7.2889 C.2       1 <0>        -0.1214
     35 C25        -5.9088   -0.3784    7.0876 C.2       1 <0>        -0.0861
     36 C26        -6.3762   -0.1472    5.8296 C.2       1 <0>        -0.0781
     37 H2          0.6621    1.8005   -0.2230 H         1 <0>         0.0764
     38 H3         -0.8451    1.4599   -1.1065 H         1 <0>         0.0806
     39 H4         -0.8699    1.6236    0.6657 H         1 <0>         0.0784
     40 H5          2.6437   -0.5413   -0.2157 H         1 <0>         0.1594
     41 H6          3.9534   -1.3368   -2.1426 H         1 <0>         0.1419
     42 H7          0.3632   -1.7870   -4.4000 H         1 <0>         0.1450
     43 H8          2.5304   -1.8255   -5.4924 H         1 <0>         0.1407
     44 H9          4.0288   -1.6373   -4.5503 H         1 <0>         0.1417
     45 H10         4.9621   -3.4725   -3.3890 H         1 <0>         0.1393
     46 H11         3.4726   -3.5444   -2.4172 H         1 <0>         0.1359
     47 H12         4.6978   -5.7062   -2.3568 H         1 <0>         0.1239
     48 H13         3.1076   -5.8843   -3.1374 H         1 <0>         0.0597
     49 H14         4.5015   -5.9282   -6.5312 H         1 <0>         0.1245
     50 H15         2.9922   -6.0148   -5.5907 H         1 <0>         0.0601
     51 H16         3.2765   -3.7661   -6.5855 H         1 <0>         0.1369
     52 H17         4.8501   -3.5992   -5.7704 H         1 <0>         0.1395
     53 H18         3.9783   -7.8873   -4.2714 H         1 <0>         0.0391
     54 H19         5.4313   -7.7417   -5.2891 H         1 <0>         0.0839
     55 H20         5.5717   -7.6400   -3.5177 H         1 <0>         0.0843
     56 H21        -1.8942   -0.1002    1.3945 H         1 <0>         0.1552
     57 H22         1.7052   -1.6235    5.7148 H         1 <0>         0.3980
     58 H23         3.2846   -1.7725    5.1617 H         1 <0>         0.4093
     59 H24        -4.3371    0.0248    1.7479 H         1 <0>         0.1908
     60 H25        -2.6357   -0.7847    6.4036 H         1 <0>         0.1601
     61 H26        -4.1634   -0.7844    8.2860 H         1 <0>         0.1616
     62 H27        -6.5882   -0.3795    7.9271 H         1 <0>         0.1540
     63 H28        -7.4287    0.0285    5.6630 H         1 <0>         0.1620
     64 H29         2.2653   -3.9798   -4.4318 H         1 <0>         0.4199
@<TRIPOS>BOND
     1    1    2 1
     2    1   37 1
     3    1   38 1
     4    1   39 1
     5    2    3 1
     6    2    4 1
     7    2   19 1
     8    4    9 ar
     9    4    5 ar
    10    5    6 ar
    11    5   40 1
    12    6    7 ar
    13    6   41 1
    14    7    8 ar
    15    7   11 1
    16    8    9 ar
    17    8   42 1
    18    9   10 1
    19   11   12 1
    20   11   43 1
    21   11   44 1
    22   12   17 1
    23   12   13 1
    24   12   64 1
    25   13   14 1
    26   13   45 1
    27   13   46 1
    28   14   15 1
    29   14   47 1
    30   14   48 1
    31   15   16 1
    32   15   18 1
    33   16   17 1
    34   16   49 1
    35   16   50 1
    36   17   51 1
    37   17   52 1
    38   18   53 1
    39   18   54 1
    40   18   55 1
    41   19   20 1
    42   20   24 2
    43   20   21 1
    44   21   22 2
    45   21   56 1
    46   22   23 1
    47   22   28 1
    48   23   24 1
    49   24   25 1
    50   25   26 2
    51   25   27 am
    52   27   57 1
    53   27   58 1
    54   28   32 1
    55   28   29 2
    56   29   30 1
    57   29   59 1
    58   30   31 2
    59   31   36 1
    60   31   32 1
    61   32   33 1
    62   33   34 2
    63   33   60 1
    64   34   35 1
    65   34   61 1
    66   35   36 2
    67   35   62 1
    68   36   63 1
@<TRIPOS>MOLECULE
CHEMBL1209676
   55    59     0     0     0
SMALL
USER_CHARGES

@<TRIPOS>ATOM
      1 C1         -0.0052    1.5021    0.2561 C.3       1 <0>        -0.1930
      2 C2          0.0030   -0.0065    0.0012 C.3       1 <0>         0.1025
      3 H1          0.5788   -0.5037    0.7818 H         1 <0>         0.0911
      4 C3          0.6296   -0.2859   -1.3405 C.ar      1 <0>        -0.0417
      5 C4         -0.1689   -0.4292   -2.4600 C.ar      1 <0>        -0.0898
      6 C5          0.4059   -0.6854   -3.6906 C.ar      1 <0>        -0.0838
      7 C6          1.7794   -0.7981   -3.8021 C.ar      1 <0>        -0.1144
      8 C7          2.5777   -0.6540   -2.6831 C.ar      1 <0>        -0.0720
      9 C8          2.0030   -0.3934   -1.4529 C.ar      1 <0>        -0.1767
     10 C9          2.8738   -0.2310   -0.2337 C.3       1 <0>         0.5054
     11 F1          4.2166   -0.3812   -0.5963 F         1 <0>        -0.1709
     12 F2          2.6780    1.0417    0.3131 F         1 <0>        -0.1711
     13 F3          2.5351   -1.2028    0.7140 F         1 <0>        -0.1760
     14 O1         -1.3386   -0.4987    0.0122 O.3       1 <0>        -0.2565
     15 C10        -1.8684   -0.8173    1.2210 C.2       1 <0>         0.1994
     16 C11        -1.1785   -0.5658    2.3813 C.2       1 <0>        -0.2324
     17 C12        -1.7460   -0.9014    3.5808 C.2       1 <0>         0.1147
     18 S1         -3.3113   -1.5995    3.0825 S.3       1 <0>         0.1516
     19 C13        -3.1295   -1.4030    1.3173 C.2       1 <0>        -0.2746
     20 C14        -4.0297   -1.7524    0.2856 C.2       1 <0>         0.6125
     21 O2         -3.7337   -1.5438   -0.8776 O.2       1 <0>        -0.5171
     22 N1         -5.2157   -2.3165    0.5884 N.am      1 <0>        -0.8526
     23 N2         -1.2323   -0.7397    4.8642 N.pl3     1 <0>        -0.4148
     24 C15         0.0072   -1.1141    5.2924 C.2       1 <0>         0.2823
     25 N3          0.1555   -0.8126    6.5490 N.2       1 <0>        -0.4680
     26 C16        -0.9769   -0.2241    7.0159 C.ar      1 <0>         0.0592
     27 C17        -1.8818   -0.1638    5.9413 C.ar      1 <0>         0.0497
     28 C18        -3.1388    0.3983    6.1188 C.ar      1 <0>        -0.1004
     29 C19        -3.5006    0.9008    7.3481 C.ar      1 <0>        -0.0822
     30 C20        -2.6079    0.8487    8.4226 C.ar      1 <0>        -0.0418
     31 C21        -1.3507    0.2833    8.2606 C.ar      1 <0>        -0.0476
     32 C22        -3.0085    1.3935    9.7435 C.ar      1 <0>        -0.0942
     33 C23        -4.2756    1.9545    9.9255 C.ar      1 <0>        -0.0671
     34 C24        -4.6013    2.4484   11.1769 C.ar      1 <0>        -0.1675
     35 C25        -3.6710    2.3717   12.1976 C.ar      1 <0>         0.0994
     36 N4         -2.4825    1.8369   11.9954 N.ar      1 <0>        -0.4797
     37 C26        -2.1299    1.3488   10.8236 C.ar      1 <0>         0.1103
     38 H2          1.0181    1.8775    0.2477 H         1 <0>         0.0973
     39 H3         -0.5810    1.9993   -0.5245 H         1 <0>         0.0774
     40 H4         -0.4585    1.7042    1.2265 H         1 <0>         0.0694
     41 H5         -1.2417   -0.3412   -2.3729 H         1 <0>         0.1485
     42 H6         -0.2179   -0.7980   -4.5650 H         1 <0>         0.1375
     43 H7          2.2284   -0.9990   -4.7635 H         1 <0>         0.1386
     44 H8          3.6505   -0.7423   -2.7701 H         1 <0>         0.1425
     45 H9         -0.2003   -0.1093    2.3478 H         1 <0>         0.1591
     46 H10        -5.4513   -2.4827    1.5146 H         1 <0>         0.3976
     47 H11        -5.8336   -2.5564   -0.1198 H         1 <0>         0.4104
     48 H12         0.7562   -1.5914    4.6780 H         1 <0>         0.2235
     49 H13        -3.8326    0.4416    5.2922 H         1 <0>         0.1303
     50 H14        -4.4790    1.3378    7.4831 H         1 <0>         0.1395
     51 H15        -0.6616    0.2451    9.0913 H         1 <0>         0.1413
     52 H16        -4.9826    2.0017    9.1104 H         1 <0>         0.1383
     53 H17        -5.5711    2.8892   11.3542 H         1 <0>         0.1394
     54 H18        -3.9217    2.7561   13.1752 H         1 <0>         0.1584
     55 H19        -1.1493    0.9140   10.6981 H         1 <0>         0.1590
@<TRIPOS>BOND
     1    1    2 1
     2    1   38 1
     3    1   39 1
     4    1   40 1
     5    2    3 1
     6    2    4 1
     7    2   14 1
     8    4    9 ar
     9    4    5 ar
    10    5    6 ar
    11    5   41 1
    12    6    7 ar
    13    6   42 1
    14    7    8 ar
    15    7   43 1
    16    8    9 ar
    17    8   44 1
    18    9   10 1
    19   10   11 1
    20   10   12 1
    21   10   13 1
    22   14   15 1
    23   15   19 2
    24   15   16 1
    25   16   17 2
    26   16   45 1
    27   17   18 1
    28   17   23 1
    29   18   19 1
    30   19   20 1
    31   20   21 2
    32   20   22 am
    33   22   46 1
    34   22   47 1
    35   23   27 1
    36   23   24 1
    37   24   25 2
    38   24   48 1
    39   25   26 1
    40   26   31 ar
    41   26   27 ar
    42   27   28 ar
    43   28   29 ar
    44   28   49 1
    45   29   30 ar
    46   29   50 1
    47   30   31 ar
    48   30   32 1
    49   31   51 1
    50   32   37 ar
    51   32   33 ar
    52   33   34 ar
    53   33   52 1
    54   34   35 ar
    55   34   53 1
    56   35   36 ar
    57   35   54 1
    58   36   37 ar
    59   37   55 1
@<TRIPOS>MOLECULE
CHEMBL1209675
   52    56     0     0     0
SMALL
USER_CHARGES

@<TRIPOS>ATOM
      1 C1         -0.2377    1.5010   -0.1013 C.3       1 <0>        -0.1759
      2 C2          0.0024   -0.0064    0.0031 C.3       1 <0>         0.1173
      3 H1         -0.9537   -0.5206    0.1015 H         1 <0>         0.0891
      4 C3          0.8555   -0.2968    1.2109 C.ar      1 <0>        -0.0850
      5 C4          2.2262   -0.4160    1.0766 C.ar      1 <0>        -0.0764
      6 C5          3.0088   -0.6823    2.1844 C.ar      1 <0>        -0.1132
      7 C6          2.4214   -0.8296    3.4273 C.ar      1 <0>        -0.1007
      8 C7          1.0513   -0.7106    3.5628 C.ar      1 <0>        -0.1105
      9 C8          0.2678   -0.4383    2.4552 C.ar      1 <0>        -0.0267
     10 Cl1        -1.4527   -0.2821    2.6257 Cl        1 <0>        -0.0674
     11 O1          0.6709   -0.4649   -1.1737 O.3       1 <0>        -0.2588
     12 C9         -0.1062   -0.7743   -2.2432 C.2       1 <0>         0.1999
     13 C10        -1.4598   -0.5442   -2.2209 C.2       1 <0>        -0.2308
     14 C11        -2.2097   -0.8692   -3.3189 C.2       1 <0>         0.1116
     15 S1         -0.9850   -1.5257   -4.4391 S.3       1 <0>         0.1482
     16 C12         0.4497   -1.3286   -3.3950 C.2       1 <0>        -0.2738
     17 C13         1.7984   -1.6521   -3.6653 C.2       1 <0>         0.6120
     18 O2          2.6546   -1.4472   -2.8232 O.2       1 <0>        -0.5161
     19 N1          2.1376   -2.1872   -4.8549 N.am      1 <0>        -0.8528
     20 N2         -3.5803   -0.7248   -3.5126 N.pl3     1 <0>        -0.4134
     21 C14        -4.5651   -1.1316   -2.6619 C.2       1 <0>         0.2831
     22 N3         -5.7323   -0.8385   -3.1566 N.2       1 <0>        -0.4699
     23 C15        -5.5808   -0.2239   -4.3576 C.ar      1 <0>         0.0629
     24 C16        -4.1983   -0.1360   -4.6020 C.ar      1 <0>         0.0467
     25 C17        -3.7375    0.4571   -5.7653 C.ar      1 <0>        -0.0872
     26 C18        -4.6491    0.9659   -6.6847 C.ar      1 <0>        -0.0286
     27 C19        -6.0222    0.8787   -6.4350 C.ar      1 <0>        -0.1031
     28 C20        -6.4832    0.2885   -5.2950 C.ar      1 <0>        -0.0552
     29 C21        -4.1634    1.6029   -7.9326 C.ar      1 <0>         0.0014
     30 C22        -2.7954    1.6964   -8.2058 C.ar      1 <0>        -0.1666
     31 C23        -2.3869    2.2964   -9.3789 C.ar      1 <0>         0.1055
     32 N4         -3.2672    2.7779  -10.2356 N.ar      1 <0>        -0.4851
     33 C24        -4.5664    2.7100  -10.0160 C.ar      1 <0>         0.1051
     34 C25        -5.0612    2.1211   -8.8708 C.ar      1 <0>        -0.1626
     35 H2          0.7184    2.0152   -0.1997 H         1 <0>         0.0764
     36 H3         -0.8547    1.7110   -0.9749 H         1 <0>         0.0678
     37 H4         -0.7476    1.8508    0.7963 H         1 <0>         0.0809
     38 H5          2.6855   -0.3015    0.1059 H         1 <0>         0.1455
     39 H6          4.0796   -0.7758    2.0789 H         1 <0>         0.1335
     40 H7          3.0334   -1.0380    4.2924 H         1 <0>         0.1352
     41 H8          0.5925   -0.8259    4.5337 H         1 <0>         0.1374
     42 H9         -1.9268   -0.1126   -1.3479 H         1 <0>         0.1603
     43 H10         1.4559   -2.3503   -5.5254 H         1 <0>         0.3974
     44 H11         3.0634   -2.4092   -5.0405 H         1 <0>         0.4105
     45 H12        -4.4004   -1.6254   -1.7156 H         1 <0>         0.2236
     46 H13        -2.6769    0.5245   -5.9574 H         1 <0>         0.1309
     47 H14        -6.7236    1.2761   -7.1537 H         1 <0>         0.1406
     48 H15        -7.5456    0.2275   -5.1107 H         1 <0>         0.1419
     49 H16        -2.0693    1.3051   -7.5086 H         1 <0>         0.1355
     50 H17        -1.3323    2.3734   -9.5987 H         1 <0>         0.1589
     51 H18        -5.2519    3.1172  -10.7446 H         1 <0>         0.1600
     52 H19        -6.1260    2.0649   -8.6997 H         1 <0>         0.1406
@<TRIPOS>BOND
     1    1    2 1
     2    1   35 1
     3    1   36 1
     4    1   37 1
     5    2    3 1
     6    2    4 1
     7    2   11 1
     8    4    9 ar
     9    4    5 ar
    10    5    6 ar
    11    5   38 1
    12    6    7 ar
    13    6   39 1
    14    7    8 ar
    15    7   40 1
    16    8    9 ar
    17    8   41 1
    18    9   10 1
    19   11   12 1
    20   12   16 2
    21   12   13 1
    22   13   14 2
    23   13   42 1
    24   14   15 1
    25   14   20 1
    26   15   16 1
    27   16   17 1
    28   17   18 2
    29   17   19 am
    30   19   43 1
    31   19   44 1
    32   20   24 1
    33   20   21 1
    34   21   22 2
    35   21   45 1
    36   22   23 1
    37   23   28 ar
    38   23   24 ar
    39   24   25 ar
    40   25   26 ar
    41   25   46 1
    42   26   27 ar
    43   26   29 1
    44   27   28 ar
    45   27   47 1
    46   28   48 1
    47   29   34 ar
    48   29   30 ar
    49   30   31 ar
    50   30   49 1
    51   31   32 ar
    52   31   50 1
    53   32   33 ar
    54   33   34 ar
    55   33   51 1
    56   34   52 1
@<TRIPOS>MOLECULE
CHEMBL1209677
   55    59     0     0     0
SMALL
USER_CHARGES

@<TRIPOS>ATOM
      1 C1         -0.0052    1.5021    0.2561 C.3       1 <0>        -0.1931
      2 C2          0.0030   -0.0065    0.0012 C.3       1 <0>         0.1025
      3 H1          0.5788   -0.5037    0.7818 H         1 <0>         0.0910
      4 C3          0.6296   -0.2859   -1.3405 C.ar      1 <0>        -0.0416
      5 C4         -0.1689   -0.4292   -2.4600 C.ar      1 <0>        -0.0896
      6 C5          0.4059   -0.6854   -3.6906 C.ar      1 <0>        -0.0838
      7 C6          1.7794   -0.7981   -3.8021 C.ar      1 <0>        -0.1144
      8 C7          2.5777   -0.6540   -2.6831 C.ar      1 <0>        -0.0721
      9 C8          2.0030   -0.3934   -1.4529 C.ar      1 <0>        -0.1768
     10 C9          2.8738   -0.2310   -0.2337 C.3       1 <0>         0.5054
     11 F1          4.2166   -0.3812   -0.5963 F         1 <0>        -0.1710
     12 F2          2.6780    1.0417    0.3131 F         1 <0>        -0.1711
     13 F3          2.5351   -1.2028    0.7140 F         1 <0>        -0.1760
     14 O1         -1.3386   -0.4987    0.0122 O.3       1 <0>        -0.2564
     15 C10        -1.8684   -0.8173    1.2210 C.2       1 <0>         0.1988
     16 C11        -1.1785   -0.5658    2.3813 C.2       1 <0>        -0.2315
     17 C12        -1.7460   -0.9014    3.5808 C.2       1 <0>         0.1131
     18 S1         -3.3113   -1.5995    3.0825 S.3       1 <0>         0.1513
     19 C13        -3.1295   -1.4030    1.3173 C.2       1 <0>        -0.2730
     20 C14        -4.0295   -1.7527    0.2856 C.2       1 <0>         0.6125
     21 O2         -3.7334   -1.5444   -0.8776 O.2       1 <0>        -0.5171
     22 N1         -5.2155   -2.3168    0.5884 N.am      1 <0>        -0.8523
     23 N2         -1.2323   -0.7397    4.8642 N.pl3     1 <0>        -0.4139
     24 C15         0.0070   -1.1138    5.2930 C.2       1 <0>         0.2816
     25 N3          0.1547   -0.8124    6.5500 N.2       1 <0>        -0.4691
     26 C16        -0.9767   -0.2245    7.0171 C.ar      1 <0>         0.0582
     27 C17        -1.8816   -0.1637    5.9421 C.ar      1 <0>         0.0507
     28 C18        -3.1343    0.3983    6.1228 C.ar      1 <0>        -0.0959
     29 C19        -3.4875    0.9028    7.3698 C.ar      1 <0>        -0.0153
     30 C20        -2.5827    0.8429    8.4340 C.ar      1 <0>        -0.1092
     31 C21        -1.3503    0.2832    8.2653 C.ar      1 <0>        -0.0525
     32 C22        -4.8275    1.5063    7.5712 C.ar      1 <0>        -0.0973
     33 C23        -5.1940    2.0225    8.8176 C.ar      1 <0>        -0.0633
     34 C24        -6.4555    2.5755    8.9538 C.ar      1 <0>        -0.1669
     35 C25        -7.3052    2.5994    7.8626 C.ar      1 <0>         0.1011
     36 N4         -6.9313    2.1045    6.6986 N.ar      1 <0>        -0.4797
     37 C26        -5.7392    1.5731    6.5197 C.ar      1 <0>         0.1104
     38 H2          1.0181    1.8775    0.2477 H         1 <0>         0.0971
     39 H3         -0.5810    1.9993   -0.5245 H         1 <0>         0.0775
     40 H4         -0.4585    1.7042    1.2265 H         1 <0>         0.0694
     41 H5         -1.2417   -0.3412   -2.3729 H         1 <0>         0.1487
     42 H6         -0.2179   -0.7980   -4.5650 H         1 <0>         0.1375
     43 H7          2.2284   -0.9990   -4.7635 H         1 <0>         0.1385
     44 H8          3.6505   -0.7423   -2.7701 H         1 <0>         0.1425
     45 H9         -0.2003   -0.1093    2.3478 H         1 <0>         0.1592
     46 H10        -5.4513   -2.4827    1.5146 H         1 <0>         0.3978
     47 H11        -5.8333   -2.5568   -0.1198 H         1 <0>         0.4105
     48 H12         0.7565   -1.5908    4.6788 H         1 <0>         0.2233
     49 H13        -3.8327    0.4450    5.3002 H         1 <0>         0.1302
     50 H14        -2.8644    1.2371    9.3992 H         1 <0>         0.1385
     51 H15        -0.6580    0.2430    9.0933 H         1 <0>         0.1408
     52 H16        -4.5104    1.9904    9.6530 H         1 <0>         0.1404
     53 H17        -6.7731    2.9836    9.9019 H         1 <0>         0.1405
     54 H18        -8.2903    3.0298    7.9654 H         1 <0>         0.1591
     55 H19        -5.4677    1.1818    5.5503 H         1 <0>         0.1552
@<TRIPOS>BOND
     1    1    2 1
     2    1   38 1
     3    1   39 1
     4    1   40 1
     5    2    3 1
     6    2    4 1
     7    2   14 1
     8    4    9 ar
     9    4    5 ar
    10    5    6 ar
    11    5   41 1
    12    6    7 ar
    13    6   42 1
    14    7    8 ar
    15    7   43 1
    16    8    9 ar
    17    8   44 1
    18    9   10 1
    19   10   11 1
    20   10   12 1
    21   10   13 1
    22   14   15 1
    23   15   19 2
    24   15   16 1
    25   16   17 2
    26   16   45 1
    27   17   18 1
    28   17   23 1
    29   18   19 1
    30   19   20 1
    31   20   21 2
    32   20   22 am
    33   22   46 1
    34   22   47 1
    35   23   27 1
    36   23   24 1
    37   24   25 2
    38   24   48 1
    39   25   26 1
    40   26   31 ar
    41   26   27 ar
    42   27   28 ar
    43   28   29 ar
    44   28   49 1
    45   29   30 ar
    46   29   32 1
    47   30   31 ar
    48   30   50 1
    49   31   51 1
    50   32   37 ar
    51   32   33 ar
    52   33   34 ar
    53   33   52 1
    54   34   35 ar
    55   34   53 1
    56   35   36 ar
    57   35   54 1
    58   36   37 ar
    59   37   55 1
@<TRIPOS>MOLECULE
CHEMBL560488
   47    50     0     0     0
SMALL
USER_CHARGES

@<TRIPOS>ATOM
      1 C1         -0.0495    1.2642    0.3532 C.3       1 <0>        -0.1756
      2 C2         -0.0158   -0.2367    0.0585 C.3       1 <0>         0.1163
      3 H1          0.5037   -0.7538    0.8652 H         1 <0>         0.0913
      4 C3         -1.4252   -0.7596   -0.0477 C.ar      1 <0>        -0.0761
      5 C4         -2.0299   -0.8707   -1.2858 C.ar      1 <0>        -0.0780
      6 C5         -3.3226   -1.3502   -1.3833 C.ar      1 <0>        -0.0930
      7 C6         -4.0116   -1.7190   -0.2427 C.ar      1 <0>        -0.0771
      8 C7         -3.4082   -1.6084    0.9955 C.ar      1 <0>        -0.0902
      9 C8         -2.1121   -1.1337    1.0933 C.ar      1 <0>        -0.0284
     10 Cl1        -1.3510   -1.0006    2.6479 Cl        1 <0>        -0.0638
     11 C9         -5.4212   -2.2413   -0.3499 C.3       1 <0>         0.1163
     12 O1         -5.3925   -3.6618   -0.5032 O.3       1 <0>        -0.5662
     13 O2          0.6709   -0.4649   -1.1737 O.3       1 <0>        -0.2628
     14 C10         2.0249   -0.5528   -1.1177 C.2       1 <0>         0.2067
     15 C11         2.6945   -0.3147    0.0526 C.2       1 <0>        -0.2455
     16 C12         4.0798   -0.4166    0.0609 C.2       1 <0>         0.0075
     17 S1          4.4391   -0.8603   -1.6303 S.3       1 <0>         0.1020
     18 C13         2.7654   -0.8934   -2.2501 C.2       1 <0>        -0.2956
     19 C14         2.3081   -1.1869   -3.5535 C.2       1 <0>         0.6130
     20 O3          1.1153   -1.1595   -3.8012 O.2       1 <0>        -0.5229
     21 N1          3.1908   -1.4973   -4.5234 N.am      1 <0>        -0.8559
     22 C15         5.0113   -0.2110    1.1764 C.2       1 <0>        -0.0302
     23 C16         4.6799    0.0337    2.4945 C.2       1 <0>         0.1075
     24 N2          5.8043    0.1612    3.1894 N.2       1 <0>        -0.4846
     25 C17         6.8492    0.0104    2.3821 C.2       1 <0>         0.2454
     26 N3          6.3888   -0.2301    1.1146 N.pl3     1 <0>        -0.3486
     27 C18         7.2609   -0.4286    0.0863 C.2       1 <0>         0.0521
     28 C19         8.5945   -0.3952    0.2993 C.2       1 <0>        -0.1266
     29 C20         9.0982   -0.1551    1.5871 C.2       1 <0>        -0.0897
     30 C21         8.2360    0.0530    2.6204 C.2       1 <0>        -0.0781
     31 H2          0.9699    1.6424    0.4300 H         1 <0>         0.0708
     32 H3         -0.5691    1.7813   -0.4535 H         1 <0>         0.0745
     33 H4         -0.5734    1.4383    1.2931 H         1 <0>         0.0801
     34 H5         -1.4923   -0.5825   -2.1770 H         1 <0>         0.1481
     35 H6         -3.7948   -1.4366   -2.3508 H         1 <0>         0.1334
     36 H7         -3.9466   -1.8962    1.8864 H         1 <0>         0.1375
     37 H8         -5.9735   -1.9845    0.5540 H         1 <0>         0.0586
     38 H9         -5.9103   -1.7924   -1.2144 H         1 <0>         0.0604
     39 H10        -6.2672   -4.0670   -0.5785 H         1 <0>         0.3838
     40 H11         2.1562   -0.0525    0.9514 H         1 <0>         0.1568
     41 H12         4.1403   -1.5192   -4.3262 H         1 <0>         0.3958
     42 H13         2.8767   -1.6989   -5.4187 H         1 <0>         0.4079
     43 H14         3.6785    0.1088    2.8918 H         1 <0>         0.1921
     44 H15         6.8824   -0.6147   -0.9079 H         1 <0>         0.1604
     45 H16         9.2753   -0.5540   -0.5240 H         1 <0>         0.1595
     46 H17        10.1645   -0.1293    1.7566 H         1 <0>         0.1514
     47 H18         8.6126    0.2370    3.6158 H         1 <0>         0.1598
@<TRIPOS>BOND
     1    1    2 1
     2    1   31 1
     3    1   32 1
     4    1   33 1
     5    2    3 1
     6    2    4 1
     7    2   13 1
     8    4    9 ar
     9    4    5 ar
    10    5    6 ar
    11    5   34 1
    12    6    7 ar
    13    6   35 1
    14    7    8 ar
    15    7   11 1
    16    8    9 ar
    17    8   36 1
    18    9   10 1
    19   11   12 1
    20   11   37 1
    21   11   38 1
    22   12   39 1
    23   13   14 1
    24   14   18 2
    25   14   15 1
    26   15   16 2
    27   15   40 1
    28   16   17 1
    29   16   22 1
    30   17   18 1
    31   18   19 1
    32   19   20 2
    33   19   21 am
    34   21   41 1
    35   21   42 1
    36   22   26 1
    37   22   23 2
    38   23   24 1
    39   23   43 1
    40   24   25 2
    41   25   30 1
    42   25   26 1
    43   26   27 1
    44   27   28 2
    45   27   44 1
    46   28   29 1
    47   28   45 1
    48   29   30 2
    49   29   46 1
    50   30   47 1
@<TRIPOS>MOLECULE
CHEMBL560488__1
   48    51     0     0     0
SMALL
USER_CHARGES

@<TRIPOS>ATOM
      1 C1         -0.0495    1.2642    0.3532 C.3       1 <0>        -0.1777
      2 C2         -0.0158   -0.2367    0.0585 C.3       1 <0>         0.1191
      3 H1          0.5037   -0.7538    0.8652 H         1 <0>         0.0885
      4 C3         -1.4252   -0.7596   -0.0477 C.ar      1 <0>        -0.0848
      5 C4         -2.0299   -0.8707   -1.2858 C.ar      1 <0>        -0.0776
      6 C5         -3.3226   -1.3502   -1.3833 C.ar      1 <0>        -0.0905
      7 C6         -4.0116   -1.7190   -0.2427 C.ar      1 <0>        -0.0697
      8 C7         -3.4082   -1.6084    0.9955 C.ar      1 <0>        -0.0885
      9 C8         -2.1121   -1.1337    1.0933 C.ar      1 <0>        -0.0267
     10 Cl1        -1.3510   -1.0006    2.6479 Cl        1 <0>        -0.0693
     11 C9         -5.4212   -2.2413   -0.3499 C.3       1 <0>         0.1134
     12 O1         -5.3925   -3.6618   -0.5032 O.3       1 <0>        -0.5668
     13 O2          0.6709   -0.4649   -1.1737 O.3       1 <0>        -0.2566
     14 C10         2.0249   -0.5528   -1.1177 C.2       1 <0>         0.1836
     15 C11         2.6945   -0.3147    0.0526 C.2       1 <0>        -0.1812
     16 C12         4.0798   -0.4166    0.0609 C.2       1 <0>        -0.0905
     17 S1          4.4391   -0.8603   -1.6303 S.3       1 <0>         0.1533
     18 C13         2.7654   -0.8934   -2.2501 C.2       1 <0>        -0.2445
     19 C14         2.3081   -1.1869   -3.5535 C.2       1 <0>         0.6033
     20 O3          1.1153   -1.1595   -3.8012 O.2       1 <0>        -0.5024
     21 N1          3.1908   -1.4973   -4.5234 N.am      1 <0>        -0.8499
     22 C15         5.0113   -0.2110    1.1764 C.2       1 <0>         0.0798
     23 C16         4.6799    0.0337    2.4945 C.2       1 <0>         0.1093
     24 N2          5.8043    0.1612    3.1894 N.pl3     1 <0>        -0.4951
     25 C17         6.8492    0.0104    2.3821 C.cat     1 <0>         0.3058
     26 N3          6.3888   -0.2301    1.1146 N.pl3     1 <0>        -0.3222
     27 C18         7.2609   -0.4286    0.0863 C.2       1 <0>         0.0805
     28 C19         8.5945   -0.3952    0.2993 C.2       1 <0>        -0.0990
     29 C20         9.0982   -0.1551    1.5871 C.2       1 <0>        -0.0150
     30 C21         8.2360    0.0530    2.6204 C.2       1 <0>        -0.1159
     31 H2          0.9699    1.6424    0.4300 H         1 <0>         0.0663
     32 H3         -0.5691    1.7813   -0.4535 H         1 <0>         0.0798
     33 H4         -0.5734    1.4383    1.2931 H         1 <0>         0.0838
     34 H5         -1.4923   -0.5825   -2.1770 H         1 <0>         0.1479
     35 H6         -3.7948   -1.4366   -2.3508 H         1 <0>         0.1363
     36 H7         -3.9466   -1.8962    1.8864 H         1 <0>         0.1398
     37 H8         -5.9735   -1.9845    0.5540 H         1 <0>         0.0605
     38 H9         -5.9103   -1.7924   -1.2144 H         1 <0>         0.0627
     39 H10        -6.2672   -4.0670   -0.5785 H         1 <0>         0.3870
     40 H11         2.1562   -0.0525    0.9514 H         1 <0>         0.1629
     41 H12         4.1403   -1.5192   -4.3262 H         1 <0>         0.3959
     42 H13         2.8767   -1.6989   -5.4187 H         1 <0>         0.4152
     43 H14         3.6785    0.1088    2.8918 H         1 <0>         0.2363
     44 H15         6.8824   -0.6147   -0.9079 H         1 <0>         0.1897
     45 H16         9.2753   -0.5540   -0.5240 H         1 <0>         0.1888
     46 H17        10.1645   -0.1293    1.7566 H         1 <0>         0.1805
     47 H18         8.6126    0.2370    3.6158 H         1 <0>         0.1852
     48 H19         5.8552    0.3381    4.1418 H         1 <0>         0.4686
@<TRIPOS>BOND
     1    1    2 1
     2    1   31 1
     3    1   32 1
     4    1   33 1
     5    2    3 1
     6    2    4 1
     7    2   13 1
     8    4    9 ar
     9    4    5 ar
    10    5    6 ar
    11    5   34 1
    12    6    7 ar
    13    6   35 1
    14    7    8 ar
    15    7   11 1
    16    8    9 ar
    17    8   36 1
    18    9   10 1
    19   11   12 1
    20   11   37 1
    21   11   38 1
    22   12   39 1
    23   13   14 1
    24   14   18 2
    25   14   15 1
    26   15   16 2
    27   15   40 1
    28   16   17 1
    29   16   22 1
    30   17   18 1
    31   18   19 1
    32   19   20 2
    33   19   21 am
    34   21   41 1
    35   21   42 1
    36   22   26 1
    37   22   23 2
    38   23   24 1
    39   23   43 1
    40   24   25 2
    41   24   48 1
    42   25   30 1
    43   25   26 1
    44   26   27 1
    45   27   28 2
    46   27   44 1
    47   28   29 1
    48   28   45 1
    49   29   30 2
    50   29   46 1
    51   30   47 1
@<TRIPOS>MOLECULE
CHEMBL477605
   48    51     0     0     0
SMALL
USER_CHARGES

@<TRIPOS>ATOM
      1 C1         -0.0842    1.6961    0.1148 C.3       1 <0>        -0.1581
      2 C2         -0.0636    0.1711   -0.0064 C.3       1 <0>         0.1974
      3 C3          0.6074   -0.2212   -1.2975 C.ar      1 <0>        -0.0972
      4 C4         -0.0956   -0.1655   -2.4865 C.ar      1 <0>        -0.1139
      5 C5          0.5198   -0.5253   -3.6708 C.ar      1 <0>        -0.1150
      6 C6          1.8384   -0.9405   -3.6662 C.ar      1 <0>        -0.1165
      7 C7          2.5416   -0.9954   -2.4774 C.ar      1 <0>        -0.1153
      8 C8          1.9274   -0.6315   -1.2936 C.ar      1 <0>        -0.1051
      9 N1         -1.4371   -0.3383    0.0046 N.pl3     1 <0>        -0.6808
     10 C9         -2.0761   -0.5746    1.2053 C.ar      1 <0>         0.5992
     11 N2         -1.4290   -0.3281    2.3373 N.ar      1 <0>        -0.5664
     12 C10        -1.9999   -0.5385    3.5097 C.ar      1 <0>         0.2536
     13 C11        -3.3091   -1.0294    3.5501 C.ar      1 <0>        -0.2049
     14 C12        -3.9649   -1.2794    2.3251 C.ar      1 <0>         0.5272
     15 N3         -3.3181   -1.0351    1.1915 N.ar      1 <0>        -0.5768
     16 N4         -5.2566   -1.7646    2.3063 N.pl3     1 <0>        -0.6652
     17 C13        -6.4154   -0.8564    2.2972 C.3       1 <0>         0.1481
     18 C14        -7.1588   -1.0567    0.9774 C.3       1 <0>        -0.0989
     19 C15        -7.3645   -2.5216    0.6950 C.ar      1 <0>        -0.0620
     20 C16        -8.3637   -2.8701   -0.2060 C.ar      1 <0>        -0.1210
     21 C17        -8.5982   -4.1931   -0.5165 C.ar      1 <0>        -0.1179
     22 C18        -7.8330   -5.1835    0.0711 C.ar      1 <0>        -0.1208
     23 C19        -6.8427   -4.8408    0.9684 C.ar      1 <0>        -0.1145
     24 C20        -6.6097   -3.5095    1.2863 C.ar      1 <0>        -0.0947
     25 C21        -5.5301   -3.2056    2.2883 C.3       1 <0>         0.1899
     26 C22        -3.9657   -1.2722    4.7992 C.1       1 <0>         0.2742
     27 N5         -4.4867   -1.4648    5.7902 N.1       1 <0>        -0.4155
     28 H1          0.9378    2.0751    0.1066 H         1 <0>         0.0712
     29 H2         -0.6355    2.1199   -0.7246 H         1 <0>         0.0580
     30 H3         -0.5695    1.9799    1.0486 H         1 <0>         0.0672
     31 H4          0.4878   -0.2527    0.8330 H         1 <0>         0.1050
     32 H5         -1.1257    0.1589   -2.4901 H         1 <0>         0.1197
     33 H6         -0.0296   -0.4824   -4.5996 H         1 <0>         0.1244
     34 H7          2.3190   -1.2224   -4.5914 H         1 <0>         0.1239
     35 H8          3.5716   -1.3202   -2.4737 H         1 <0>         0.1256
     36 H9          2.4779   -0.6708   -0.3653 H         1 <0>         0.1262
     37 H10        -1.8976   -0.5095   -0.8318 H         1 <0>         0.4154
     38 H11        -1.4632   -0.3345    4.4245 H         1 <0>         0.1807
     39 H12        -7.0756   -1.0926    3.1318 H         1 <0>         0.0709
     40 H13        -6.0754    0.1762    2.3759 H         1 <0>         0.0779
     41 H14        -8.1288   -0.5628    1.0337 H         1 <0>         0.0825
     42 H15        -6.5782   -0.6137    0.1682 H         1 <0>         0.0820
     43 H16        -8.9620   -2.0980   -0.6667 H         1 <0>         0.1206
     44 H17        -9.3773   -4.4549   -1.2171 H         1 <0>         0.1218
     45 H18        -8.0095   -6.2210   -0.1717 H         1 <0>         0.1228
     46 H19        -6.2444   -5.6140    1.4273 H         1 <0>         0.1217
     47 H20        -4.6219   -3.7437    2.0167 H         1 <0>         0.0814
     48 H21        -5.8579   -3.5249    3.2776 H         1 <0>         0.0720
@<TRIPOS>BOND
     1    1    2 1
     2    1   28 1
     3    1   29 1
     4    1   30 1
     5    2    3 1
     6    2    9 1
     7    2   31 1
     8    3    8 ar
     9    3    4 ar
    10    4    5 ar
    11    4   32 1
    12    5    6 ar
    13    5   33 1
    14    6    7 ar
    15    6   34 1
    16    7    8 ar
    17    7   35 1
    18    8   36 1
    19    9   10 1
    20    9   37 1
    21   10   15 ar
    22   10   11 ar
    23   11   12 ar
    24   12   13 ar
    25   12   38 1
    26   13   14 ar
    27   13   26 1
    28   14   15 ar
    29   14   16 1
    30   16   25 1
    31   16   17 1
    32   17   18 1
    33   17   39 1
    34   17   40 1
    35   18   19 1
    36   18   41 1
    37   18   42 1
    38   19   24 ar
    39   19   20 ar
    40   20   21 ar
    41   20   43 1
    42   21   22 ar
    43   21   44 1
    44   22   23 ar
    45   22   45 1
    46   23   24 ar
    47   23   46 1
    48   24   25 1
    49   25   47 1
    50   25   48 1
    51   26   27 3
@<TRIPOS>MOLECULE
CHEMBL477605__1
   48    51     0     0     0
SMALL
USER_CHARGES

@<TRIPOS>ATOM
      1 C1         -0.1270    1.3445    0.0217 C.3       1 <0>        -0.1582
      2 C2         -0.0059   -0.1801    0.0654 C.3       1 <0>         0.1973
      3 C3         -1.3817   -0.7916    0.1311 C.ar      1 <0>        -0.0971
      4 C4         -2.1348   -0.9243   -1.0204 C.ar      1 <0>        -0.1140
      5 C5         -3.3968   -1.4852   -0.9601 C.ar      1 <0>        -0.1149
      6 C6         -3.9054   -1.9139    0.2517 C.ar      1 <0>        -0.1166
      7 C7         -3.1519   -1.7821    1.4031 C.ar      1 <0>        -0.1152
      8 C8         -1.8882   -1.2250    1.3421 C.ar      1 <0>        -0.1051
      9 N1          0.6804   -0.6502   -1.1406 N.pl3     1 <0>        -0.6809
     10 C9          2.0600   -0.6742   -1.1847 C.ar      1 <0>         0.5993
     11 N2          2.7443   -0.2720   -0.1212 N.ar      1 <0>        -0.5664
     12 C10         4.0651   -0.2777   -0.1171 C.ar      1 <0>         0.2537
     13 C11         4.7466   -0.7167   -1.2571 C.ar      1 <0>        -0.2049
     14 C12         3.9842   -1.1368   -2.3685 C.ar      1 <0>         0.5271
     15 N3          2.6594   -1.1031   -2.2853 N.ar      1 <0>        -0.5769
     16 N4          4.6047   -1.5790   -3.5191 N.pl3     1 <0>        -0.6652
     17 C13         4.9473   -2.9985   -3.7070 C.3       1 <0>         0.1481
     18 C14         4.1304   -3.5268   -4.8852 C.3       1 <0>        -0.0991
     19 C15         4.2097   -2.5851   -6.0577 C.ar      1 <0>        -0.0618
     20 C16         3.8990   -3.0923   -7.3138 C.ar      1 <0>        -0.1210
     21 C17         3.9424   -2.2812   -8.4283 C.ar      1 <0>        -0.1179
     22 C18         4.2963   -0.9510   -8.2975 C.ar      1 <0>        -0.1208
     23 C19         4.6085   -0.4457   -7.0524 C.ar      1 <0>        -0.1146
     24 C20         4.5709   -1.2627   -5.9305 C.ar      1 <0>        -0.0948
     25 C21         4.9439   -0.6547   -4.6063 C.3       1 <0>         0.1900
     26 C22         6.1779   -0.7389   -1.2958 C.1       1 <0>         0.2742
     27 N5          7.3133   -0.7566   -1.3265 N.1       1 <0>        -0.4155
     28 H1          0.8681    1.7868   -0.0259 H         1 <0>         0.0670
     29 H2         -0.6978    1.6385   -0.8591 H         1 <0>         0.0581
     30 H3         -0.6375    1.6943    0.9190 H         1 <0>         0.0713
     31 H4          0.5649   -0.4741    0.9462 H         1 <0>         0.1053
     32 H5         -1.7374   -0.5893   -1.9671 H         1 <0>         0.1197
     33 H6         -3.9855   -1.5882   -1.8596 H         1 <0>         0.1244
     34 H7         -4.8917   -2.3515    0.2989 H         1 <0>         0.1239
     35 H8         -3.5494   -2.1167    2.3499 H         1 <0>         0.1256
     36 H9         -1.2980   -1.1255    2.2411 H         1 <0>         0.1263
     37 H10         0.1654   -0.9446   -1.9080 H         1 <0>         0.4154
     38 H11         4.6113    0.0523    0.7542 H         1 <0>         0.1807
     39 H12         6.0113   -3.0956   -3.9230 H         1 <0>         0.0709
     40 H13         4.7005   -3.5599   -2.8059 H         1 <0>         0.0779
     41 H14         4.5176   -4.5017   -5.1815 H         1 <0>         0.0825
     42 H15         3.0892   -3.6331   -4.5805 H         1 <0>         0.0821
     43 H16         3.6215   -4.1308   -7.4180 H         1 <0>         0.1206
     44 H17         3.7003   -2.6840   -9.4007 H         1 <0>         0.1218
     45 H18         4.3279   -0.3103   -9.1663 H         1 <0>         0.1228
     46 H19         4.8847    0.5934   -6.9496 H         1 <0>         0.1217
     47 H20         4.3996    0.2799   -4.4709 H         1 <0>         0.0814
     48 H21         6.0153   -0.4551   -4.5917 H         1 <0>         0.0720
@<TRIPOS>BOND
     1    1    2 1
     2    1   28 1
     3    1   29 1
     4    1   30 1
     5    2    3 1
     6    2    9 1
     7    2   31 1
     8    3    8 ar
     9    3    4 ar
    10    4    5 ar
    11    4   32 1
    12    5    6 ar
    13    5   33 1
    14    6    7 ar
    15    6   34 1
    16    7    8 ar
    17    7   35 1
    18    8   36 1
    19    9   10 1
    20    9   37 1
    21   10   15 ar
    22   10   11 ar
    23   11   12 ar
    24   12   13 ar
    25   12   38 1
    26   13   14 ar
    27   13   26 1
    28   14   15 ar
    29   14   16 1
    30   16   25 1
    31   16   17 1
    32   17   18 1
    33   17   39 1
    34   17   40 1
    35   18   19 1
    36   18   41 1
    37   18   42 1
    38   19   24 ar
    39   19   20 ar
    40   20   21 ar
    41   20   43 1
    42   21   22 ar
    43   21   44 1
    44   22   23 ar
    45   22   45 1
    46   23   24 ar
    47   23   46 1
    48   24   25 1
    49   25   47 1
    50   25   48 1
    51   26   27 3
@<TRIPOS>MOLECULE
CHEMBL477393
   50    52     0     0     0
SMALL
USER_CHARGES

@<TRIPOS>ATOM
      1 C1          1.4960    0.1695   -4.3057 C.3       1 <0>        -0.1493
      2 C2          1.4332   -0.2122   -2.8254 C.3       1 <0>        -0.1447
      3 C3          0.7982   -1.5968   -2.6822 C.3       1 <0>         0.1483
      4 N1          0.7381   -1.9623   -1.2648 N.pl3     1 <0>        -0.6587
      5 C4         -0.3857   -1.5127   -0.4395 C.3       1 <0>         0.1776
      6 C5         -1.5056   -2.5538   -0.4919 C.3       1 <0>        -0.1729
      7 C6         -2.8381   -2.1275   -1.1113 C.3       1 <0>        -0.1770
      8 C7         -2.7260   -2.3242    0.4019 C.3       1 <0>        -0.1789
      9 C8          1.7400   -2.7301   -0.7072 C.ar      1 <0>         0.5253
     10 C9          2.8153   -2.1219   -0.0233 C.ar      1 <0>        -0.2091
     11 C10         3.8026   -2.9486    0.5221 C.ar      1 <0>         0.2526
     12 N2          3.6951   -4.2575    0.3792 N.ar      1 <0>        -0.5681
     13 C11         2.6702   -4.7945   -0.2701 C.ar      1 <0>         0.5993
     14 N3          1.7073   -4.0541   -0.7993 N.ar      1 <0>        -0.5782
     15 N4          2.6020   -6.1678   -0.3931 N.pl3     1 <0>        -0.6813
     16 C12         3.6514   -7.0084    0.1888 C.3       1 <0>         0.1976
     17 C13         4.8162   -7.1249   -0.7963 C.3       1 <0>        -0.1580
     18 C14         3.0958   -8.3799    0.4742 C.ar      1 <0>        -0.0969
     19 C15         2.2355   -8.9785   -0.4271 C.ar      1 <0>        -0.1140
     20 C16         1.7258  -10.2365   -0.1653 C.ar      1 <0>        -0.1151
     21 C17         2.0769  -10.8961    0.9977 C.ar      1 <0>        -0.1167
     22 C18         2.9379  -10.2979    1.8986 C.ar      1 <0>        -0.1152
     23 C19         3.4509   -9.0417    1.6348 C.ar      1 <0>        -0.1051
     24 C20         2.8928   -0.6980    0.1078 C.1       1 <0>         0.2741
     25 N5          2.9543    0.4315    0.2118 N.1       1 <0>        -0.4155
     26 H1          2.0967   -0.5632   -4.8447 H         1 <0>         0.0543
     27 H2          0.4877    0.1877   -4.7193 H         1 <0>         0.0563
     28 H3          1.9485    1.1559   -4.4077 H         1 <0>         0.0568
     29 H4          2.4416   -0.2305   -2.4118 H         1 <0>         0.0596
     30 H5          0.8326    0.5204   -2.2864 H         1 <0>         0.0636
     31 H6         -0.2101   -1.5786   -3.0959 H         1 <0>         0.0752
     32 H7          1.3988   -2.3295   -3.2212 H         1 <0>         0.0686
     33 H8         -0.0528   -1.3887    0.5910 H         1 <0>         0.0686
     34 H9         -0.7568   -0.5605   -0.8186 H         1 <0>         0.0788
     35 H10        -1.1835   -3.5832   -0.6492 H         1 <0>         0.1115
     36 H11        -2.9168   -1.1054   -1.4815 H         1 <0>         0.0933
     37 H12        -3.3928   -2.8765   -1.6765 H         1 <0>         0.0921
     38 H13        -3.2071   -3.2026    0.8322 H         1 <0>         0.0934
     39 H14        -2.7311   -1.4315    1.0272 H         1 <0>         0.0937
     40 H15         4.6416   -2.5228    1.0524 H         1 <0>         0.1791
     41 H16         1.8593   -6.5762   -0.8647 H         1 <0>         0.4150
     42 H17         4.0040   -6.5589    1.1170 H         1 <0>         0.1048
     43 H18         5.5970   -7.7503   -0.3634 H         1 <0>         0.0710
     44 H19         4.4636   -7.5745   -1.7245 H         1 <0>         0.0580
     45 H20         5.2181   -6.1330   -1.0027 H         1 <0>         0.0671
     46 H21         1.9612   -8.4631   -1.3357 H         1 <0>         0.1198
     47 H22         1.0531  -10.7038   -0.8692 H         1 <0>         0.1243
     48 H23         1.6782  -11.8787    1.2026 H         1 <0>         0.1238
     49 H24         3.2119  -10.8131    2.8074 H         1 <0>         0.1255
     50 H25         4.1265   -8.5759    2.3369 H         1 <0>         0.1261
@<TRIPOS>BOND
     1    1    2 1
     2    1   26 1
     3    1   27 1
     4    1   28 1
     5    2    3 1
     6    2   29 1
     7    2   30 1
     8    3    4 1
     9    3   31 1
    10    3   32 1
    11    4    5 1
    12    4    9 1
    13    5    6 1
    14    5   33 1
    15    5   34 1
    16    6    8 1
    17    6    7 1
    18    6   35 1
    19    7    8 1
    20    7   36 1
    21    7   37 1
    22    8   38 1
    23    8   39 1
    24    9   14 ar
    25    9   10 ar
    26   10   11 ar
    27   10   24 1
    28   11   12 ar
    29   11   40 1
    30   12   13 ar
    31   13   14 ar
    32   13   15 1
    33   15   16 1
    34   15   41 1
    35   16   17 1
    36   16   18 1
    37   16   42 1
    38   17   43 1
    39   17   44 1
    40   17   45 1
    41   18   23 ar
    42   18   19 ar
    43   19   20 ar
    44   19   46 1
    45   20   21 ar
    46   20   47 1
    47   21   22 ar
    48   21   48 1
    49   22   23 ar
    50   22   49 1
    51   23   50 1
    52   24   25 3
@<TRIPOS>MOLECULE
CHEMBL477393__1
   50    52     0     0     0
SMALL
USER_CHARGES

@<TRIPOS>ATOM
      1 C1          1.4960    0.1695   -4.3057 C.3       1 <0>        -0.1493
      2 C2          1.4332   -0.2122   -2.8254 C.3       1 <0>        -0.1447
      3 C3          0.7982   -1.5968   -2.6822 C.3       1 <0>         0.1482
      4 N1          0.7381   -1.9623   -1.2648 N.pl3     1 <0>        -0.6587
      5 C4         -0.3857   -1.5127   -0.4395 C.3       1 <0>         0.1776
      6 C5         -1.5056   -2.5538   -0.4919 C.3       1 <0>        -0.1729
      7 C6         -2.8381   -2.1275   -1.1113 C.3       1 <0>        -0.1771
      8 C7         -2.7260   -2.3242    0.4019 C.3       1 <0>        -0.1789
      9 C8          1.7400   -2.7301   -0.7072 C.ar      1 <0>         0.5253
     10 C9          2.8153   -2.1219   -0.0233 C.ar      1 <0>        -0.2091
     11 C10         3.8026   -2.9486    0.5221 C.ar      1 <0>         0.2525
     12 N2          3.6951   -4.2575    0.3792 N.ar      1 <0>        -0.5681
     13 C11         2.6702   -4.7945   -0.2701 C.ar      1 <0>         0.5993
     14 N3          1.7073   -4.0541   -0.7993 N.ar      1 <0>        -0.5782
     15 N4          2.6020   -6.1678   -0.3931 N.pl3     1 <0>        -0.6814
     16 C12         3.6514   -7.0084    0.1888 C.3       1 <0>         0.1976
     17 C13         3.3354   -7.2716    1.6625 C.3       1 <0>        -0.1580
     18 C14         3.7146   -8.3186   -0.5532 C.ar      1 <0>        -0.0968
     19 C15         2.5482   -8.9419   -0.9558 C.ar      1 <0>        -0.1140
     20 C16         2.6062  -10.1437   -1.6363 C.ar      1 <0>        -0.1150
     21 C17         3.8305  -10.7220   -1.9147 C.ar      1 <0>        -0.1167
     22 C18         4.9969  -10.0982   -1.5129 C.ar      1 <0>        -0.1152
     23 C19         4.9391   -8.8943   -0.8361 C.ar      1 <0>        -0.1052
     24 C20         2.8928   -0.6980    0.1078 C.1       1 <0>         0.2741
     25 N5          2.9543    0.4315    0.2118 N.1       1 <0>        -0.4155
     26 H1          2.0967   -0.5632   -4.8447 H         1 <0>         0.0543
     27 H2          0.4877    0.1877   -4.7193 H         1 <0>         0.0563
     28 H3          1.9485    1.1559   -4.4077 H         1 <0>         0.0568
     29 H4          2.4416   -0.2305   -2.4118 H         1 <0>         0.0596
     30 H5          0.8326    0.5204   -2.2864 H         1 <0>         0.0636
     31 H6         -0.2101   -1.5786   -3.0959 H         1 <0>         0.0752
     32 H7          1.3988   -2.3295   -3.2212 H         1 <0>         0.0686
     33 H8         -0.0528   -1.3887    0.5910 H         1 <0>         0.0686
     34 H9         -0.7568   -0.5605   -0.8186 H         1 <0>         0.0787
     35 H10        -1.1835   -3.5832   -0.6492 H         1 <0>         0.1115
     36 H11        -2.9168   -1.1054   -1.4815 H         1 <0>         0.0932
     37 H12        -3.3928   -2.8765   -1.6765 H         1 <0>         0.0921
     38 H13        -3.2071   -3.2026    0.8322 H         1 <0>         0.0934
     39 H14        -2.7311   -1.4315    1.0272 H         1 <0>         0.0936
     40 H15         4.6416   -2.5228    1.0524 H         1 <0>         0.1791
     41 H16         1.8593   -6.5762   -0.8647 H         1 <0>         0.4150
     42 H17         4.6115   -6.4987    0.1085 H         1 <0>         0.1049
     43 H18         3.2897   -6.3240    2.1991 H         1 <0>         0.0671
     44 H19         2.3753   -7.7813    1.7428 H         1 <0>         0.0579
     45 H20         4.1161   -7.8970    2.0954 H         1 <0>         0.0710
     46 H21         1.5917   -8.4901   -0.7382 H         1 <0>         0.1197
     47 H22         1.6949  -10.6310   -1.9502 H         1 <0>         0.1243
     48 H23         3.8758  -11.6613   -2.4458 H         1 <0>         0.1238
     49 H24         5.9534  -10.5502   -1.7302 H         1 <0>         0.1255
     50 H25         5.8504   -8.4051   -0.5255 H         1 <0>         0.1262
@<TRIPOS>BOND
     1    1    2 1
     2    1   26 1
     3    1   27 1
     4    1   28 1
     5    2    3 1
     6    2   29 1
     7    2   30 1
     8    3    4 1
     9    3   31 1
    10    3   32 1
    11    4    5 1
    12    4    9 1
    13    5    6 1
    14    5   33 1
    15    5   34 1
    16    6    8 1
    17    6    7 1
    18    6   35 1
    19    7    8 1
    20    7   36 1
    21    7   37 1
    22    8   38 1
    23    8   39 1
    24    9   14 ar
    25    9   10 ar
    26   10   11 ar
    27   10   24 1
    28   11   12 ar
    29   11   40 1
    30   12   13 ar
    31   13   14 ar
    32   13   15 1
    33   15   16 1
    34   15   41 1
    35   16   17 1
    36   16   18 1
    37   16   42 1
    38   17   43 1
    39   17   44 1
    40   17   45 1
    41   18   23 ar
    42   18   19 ar
    43   19   20 ar
    44   19   46 1
    45   20   21 ar
    46   20   47 1
    47   21   22 ar
    48   21   48 1
    49   22   23 ar
    50   22   49 1
    51   23   50 1
    52   24   25 3
@<TRIPOS>MOLECULE
CHEMBL477604
   45    47     0     0     0
SMALL
USER_CHARGES

@<TRIPOS>ATOM
      1 C1         -0.1883    1.9467    0.2881 C.3       1 <0>        -0.1583
      2 C2         -0.1668    0.4428    0.0074 C.3       1 <0>         0.1980
      3 C3          0.4538    0.1926   -1.3428 C.ar      1 <0>        -0.0967
      4 C4         -0.2959    0.3666   -2.4911 C.ar      1 <0>        -0.1140
      5 C5          0.2733    0.1372   -3.7297 C.ar      1 <0>        -0.1151
      6 C6          1.5926   -0.2658   -3.8201 C.ar      1 <0>        -0.1168
      7 C7          2.3426   -0.4390   -2.6719 C.ar      1 <0>        -0.1153
      8 C8          1.7746   -0.2054   -1.4335 C.ar      1 <0>        -0.1049
      9 N1         -1.5369   -0.0758    0.0188 N.pl3     1 <0>        -0.6785
     10 C9         -2.1269   -0.4411    1.2122 C.ar      1 <0>         0.6227
     11 N2         -1.4362   -0.3090    2.3378 N.ar      1 <0>        -0.5899
     12 C10        -1.9592   -0.6450    3.5031 C.ar      1 <0>         0.2803
     13 C11        -3.2640   -1.1479    3.5430 C.ar      1 <0>        -0.2535
     14 C12        -3.9670   -1.2739    2.3253 C.ar      1 <0>         0.5168
     15 N3         -3.3666   -0.9075    1.1989 N.ar      1 <0>        -0.6072
     16 N4         -5.2579   -1.7645    2.3063 N.pl3     1 <0>        -0.6404
     17 C13        -5.8992   -1.9976    1.0862 C.ar      1 <0>         0.1902
     18 C14        -5.1728   -2.4602   -0.0044 C.ar      1 <0>        -0.1436
     19 C15        -5.8065   -2.6904   -1.2097 C.ar      1 <0>        -0.0612
     20 C16        -7.1638   -2.4611   -1.3348 C.ar      1 <0>        -0.2200
     21 C17        -7.8942   -1.9987   -0.2493 C.ar      1 <0>         0.1473
     22 C18        -7.2632   -1.7727    0.9641 C.ar      1 <0>        -0.1791
     23 O1         -9.2286   -1.7733   -0.3740 O.3       1 <0>        -0.3170
     24 C19        -9.8139   -2.0337   -1.6514 C.3       1 <0>         0.0274
     25 C20        -3.8697   -1.5248    4.7847 C.1       1 <0>         0.2645
     26 N5         -4.3501   -1.8239    5.7697 N.1       1 <0>        -0.4188
     27 H1          0.8311    2.3325    0.2797 H         1 <0>         0.0708
     28 H2         -0.7741    2.4513   -0.4801 H         1 <0>         0.0576
     29 H3         -0.6372    2.1276    1.2648 H         1 <0>         0.0680
     30 H4          0.4190   -0.0619    0.7757 H         1 <0>         0.1061
     31 H5         -1.3266    0.6815   -2.4205 H         1 <0>         0.1199
     32 H6         -0.3126    0.2724   -4.6267 H         1 <0>         0.1241
     33 H7          2.0371   -0.4458   -4.7877 H         1 <0>         0.1235
     34 H8          3.3732   -0.7541   -2.7425 H         1 <0>         0.1253
     35 H9          2.3616   -0.3370   -0.5366 H         1 <0>         0.1263
     36 H10        -2.0296   -0.1624   -0.8123 H         1 <0>         0.4153
     37 H11        -1.3874   -0.5334    4.4125 H         1 <0>         0.1806
     38 H12        -5.7195   -1.9474    3.1396 H         1 <0>         0.4239
     39 H13        -4.1120   -2.6395    0.0905 H         1 <0>         0.1351
     40 H14        -5.2404   -3.0500   -2.0563 H         1 <0>         0.1291
     41 H15        -7.6565   -2.6417   -2.2788 H         1 <0>         0.1293
     42 H16        -7.8310   -1.4174    1.8113 H         1 <0>         0.1329
     43 H17       -10.8807   -1.8132   -1.6140 H         1 <0>         0.1014
     44 H18        -9.3389   -1.4042   -2.4038 H         1 <0>         0.0570
     45 H19        -9.6685   -3.0824   -1.9107 H         1 <0>         0.0571
@<TRIPOS>BOND
     1    1    2 1
     2    1   27 1
     3    1   28 1
     4    1   29 1
     5    2    3 1
     6    2    9 1
     7    2   30 1
     8    3    8 ar
     9    3    4 ar
    10    4    5 ar
    11    4   31 1
    12    5    6 ar
    13    5   32 1
    14    6    7 ar
    15    6   33 1
    16    7    8 ar
    17    7   34 1
    18    8   35 1
    19    9   10 1
    20    9   36 1
    21   10   15 ar
    22   10   11 ar
    23   11   12 ar
    24   12   13 ar
    25   12   37 1
    26   13   14 ar
    27   13   25 1
    28   14   15 ar
    29   14   16 1
    30   16   17 1
    31   16   38 1
    32   17   22 ar
    33   17   18 ar
    34   18   19 ar
    35   18   39 1
    36   19   20 ar
    37   19   40 1
    38   20   21 ar
    39   20   41 1
    40   21   22 ar
    41   21   23 1
    42   22   42 1
    43   23   24 1
    44   24   43 1
    45   24   44 1
    46   24   45 1
    47   25   26 3
@<TRIPOS>MOLECULE
CHEMBL477604__1
   45    47     0     0     0
SMALL
USER_CHARGES

@<TRIPOS>ATOM
      1 C1         -0.2618    1.0529    0.0674 C.3       1 <0>        -0.1579
      2 C2          0.0062   -0.4496    0.1744 C.3       1 <0>         0.1978
      3 C3         -1.3015   -1.1840    0.3204 C.ar      1 <0>        -0.0968
      4 C4         -2.0774   -1.4423   -0.7942 C.ar      1 <0>        -0.1138
      5 C5         -3.2770   -2.1160   -0.6603 C.ar      1 <0>        -0.1152
      6 C6         -3.7006   -2.5319    0.5881 C.ar      1 <0>        -0.1169
      7 C7         -2.9243   -2.2744    1.7026 C.ar      1 <0>        -0.1154
      8 C8         -1.7226   -1.6045    1.5681 C.ar      1 <0>        -0.1050
      9 N1          0.6928   -0.9105   -1.0349 N.pl3     1 <0>        -0.6786
     10 C9          2.0661   -0.8066   -1.1311 C.ar      1 <0>         0.6226
     11 N2          2.7446   -0.2910   -0.1137 N.ar      1 <0>        -0.5898
     12 C10         4.0592   -0.1721   -0.1603 C.ar      1 <0>         0.2802
     13 C11         4.7404   -0.5994   -1.3050 C.ar      1 <0>        -0.2534
     14 C12         3.9844   -1.1424   -2.3663 C.ar      1 <0>         0.5168
     15 N3          2.6659   -1.2296   -2.2337 N.ar      1 <0>        -0.6071
     16 N4          4.6053   -1.5798   -3.5198 N.pl3     1 <0>        -0.6404
     17 C13         3.8382   -2.0030   -4.6092 C.ar      1 <0>         0.1902
     18 C14         2.6335   -1.3734   -4.8982 C.ar      1 <0>        -0.1438
     19 C15         1.8757   -1.7916   -5.9745 C.ar      1 <0>        -0.0614
     20 C16         2.3127   -2.8369   -6.7663 C.ar      1 <0>        -0.2200
     21 C17         3.5147   -3.4696   -6.4822 C.ar      1 <0>         0.1475
     22 C18         4.2814   -3.0486   -5.4069 C.ar      1 <0>        -0.1791
     23 O1          3.9427   -4.4974   -7.2615 O.3       1 <0>        -0.3169
     24 C19         3.1051   -4.8740   -8.3563 C.3       1 <0>         0.0274
     25 C20         6.1651   -0.4886   -1.3978 C.1       1 <0>         0.2645
     26 N5          7.2953   -0.4007   -1.4715 N.1       1 <0>        -0.4187
     27 H1          0.6841    1.5842   -0.0382 H         1 <0>         0.0679
     28 H2         -0.8879    1.2492   -0.8030 H         1 <0>         0.0578
     29 H3         -0.7727    1.3959    0.9671 H         1 <0>         0.0708
     30 H4          0.6323   -0.6459    1.0448 H         1 <0>         0.1060
     31 H5         -1.7465   -1.1174   -1.7695 H         1 <0>         0.1199
     32 H6         -3.8835   -2.3171   -1.5310 H         1 <0>         0.1241
     33 H7         -4.6381   -3.0576    0.6929 H         1 <0>         0.1235
     34 H8         -3.2553   -2.5990    2.6780 H         1 <0>         0.1253
     35 H9         -1.1143   -1.4066    2.4383 H         1 <0>         0.1263
     36 H10         0.1825   -1.2887   -1.7680 H         1 <0>         0.4152
     37 H11         4.6007    0.2494    0.6737 H         1 <0>         0.1806
     38 H12         5.5737   -1.5935   -3.5741 H         1 <0>         0.4240
     39 H13         2.2894   -0.5569   -4.2807 H         1 <0>         0.1351
     40 H14         0.9397   -1.3012   -6.1977 H         1 <0>         0.1291
     41 H15         1.7177   -3.1618   -7.6070 H         1 <0>         0.1294
     42 H16         5.2194   -3.5367   -5.1872 H         1 <0>         0.1329
     43 H17         3.5623   -5.7041   -8.8948 H         1 <0>         0.1014
     44 H18         2.1292   -5.1793   -7.9789 H         1 <0>         0.0570
     45 H19         2.9849   -4.0258   -9.0303 H         1 <0>         0.0571
@<TRIPOS>BOND
     1    1    2 1
     2    1   27 1
     3    1   28 1
     4    1   29 1
     5    2    3 1
     6    2    9 1
     7    2   30 1
     8    3    8 ar
     9    3    4 ar
    10    4    5 ar
    11    4   31 1
    12    5    6 ar
    13    5   32 1
    14    6    7 ar
    15    6   33 1
    16    7    8 ar
    17    7   34 1
    18    8   35 1
    19    9   10 1
    20    9   36 1
    21   10   15 ar
    22   10   11 ar
    23   11   12 ar
    24   12   13 ar
    25   12   37 1
    26   13   14 ar
    27   13   25 1
    28   14   15 ar
    29   14   16 1
    30   16   17 1
    31   16   38 1
    32   17   22 ar
    33   17   18 ar
    34   18   19 ar
    35   18   39 1
    36   19   20 ar
    37   19   40 1
    38   20   21 ar
    39   20   41 1
    40   21   22 ar
    41   21   23 1
    42   22   42 1
    43   23   24 1
    44   24   43 1
    45   24   44 1
    46   24   45 1
    47   25   26 3
@<TRIPOS>MOLECULE
CHEMBL478654
   51    54     0     0     0
SMALL
USER_CHARGES

@<TRIPOS>ATOM
      1 C1          3.0785   -5.6049   -2.4121 C.3       1 <0>        -0.1708
      2 C2          2.0192   -4.9905   -1.5338 C.2       1 <0>         0.5113
      3 O1          2.2287   -4.8352   -0.3493 O.2       1 <0>        -0.5284
      4 N1          0.8390   -4.6137   -2.0645 N.am      1 <0>        -0.5740
      5 C3          0.6327   -4.6803   -3.5134 C.3       1 <0>         0.0799
      6 C4         -0.1893   -4.1590   -1.2316 C.ar      1 <0>         0.1481
      7 C5         -0.1008   -2.9056   -0.6384 C.ar      1 <0>        -0.1328
      8 C6         -1.1155   -2.4557    0.1841 C.ar      1 <0>        -0.0907
      9 C7         -2.2213   -3.2500    0.4197 C.ar      1 <0>        -0.1480
     10 C8         -2.3157   -4.5044   -0.1700 C.ar      1 <0>         0.1830
     11 C9         -1.3007   -4.9566   -1.0018 C.ar      1 <0>        -0.1140
     12 N2         -3.4345   -5.3077    0.0691 N.pl3     1 <0>        -0.6369
     13 C10        -3.2928   -6.6799    0.1647 C.ar      1 <0>         0.4741
     14 C11        -4.4249   -7.5110    0.2853 C.ar      1 <0>        -0.1653
     15 C12        -4.2247   -8.8890    0.3778 C.ar      1 <0>         0.2259
     16 N3         -2.9907   -9.3631    0.3494 N.ar      1 <0>        -0.5953
     17 C13        -1.9480   -8.5519    0.2350 C.ar      1 <0>         0.5837
     18 N4         -2.0882   -7.2380    0.1390 N.ar      1 <0>        -0.6110
     19 N5         -0.6769   -9.0938    0.2097 N.pl3     1 <0>        -0.7051
     20 C14        -0.4970  -10.5444    0.3087 C.3       1 <0>         0.1492
     21 C15         0.9953  -10.8779    0.2565 C.3       1 <0>        -0.0496
     22 C16         1.1805  -12.3700    0.3583 C.2       1 <0>        -0.1300
     23 C17         1.2366  -13.2928   -0.6330 C.2       1 <0>        -0.1582
     24 C18         1.4157  -14.6227   -0.3014 C.2       1 <0>        -0.1544
     25 C19         1.5299  -14.9647    1.0052 C.2       1 <0>        -0.1789
     26 S1          1.3905  -13.3800    1.8153 S.3       1 <0>         0.0378
     27 C20        -5.7866   -6.9387    0.3134 C.2       1 <0>         0.1105
     28 N6         -6.9344   -7.6119    0.4230 N.2       1 <0>        -0.3693
     29 N7         -7.8920   -6.7489    0.4091 N.2       1 <0>        -0.1845
     30 N8         -7.3973   -5.5663    0.2958 N.2       1 <0>        -0.1815
     31 N9         -6.1118   -5.6458    0.2401 N.2       1 <0>        -0.3974
     32 H1          3.9559   -5.8429   -1.8109 H         1 <0>         0.0915
     33 H2          2.6904   -6.5170   -2.8655 H         1 <0>         0.0887
     34 H3          3.3553   -4.8992   -3.1954 H         1 <0>         0.0872
     35 H4          0.2323   -5.6586   -3.7788 H         1 <0>         0.0593
     36 H5         -0.0713   -3.9052   -3.8161 H         1 <0>         0.0752
     37 H6          1.5838   -4.5265   -4.0232 H         1 <0>         0.0756
     38 H7          0.7624   -2.2825   -0.8202 H         1 <0>         0.1166
     39 H8         -1.0441   -1.4813    0.6442 H         1 <0>         0.1264
     40 H9         -3.0129   -2.8955    1.0632 H         1 <0>         0.1275
     41 H10        -1.3740   -5.9292   -1.4656 H         1 <0>         0.1338
     42 H11        -4.3103   -4.9025    0.1680 H         1 <0>         0.4427
     43 H12        -5.0664   -9.5591    0.4717 H         1 <0>         0.1729
     44 H13         0.0961   -8.5138    0.1265 H         1 <0>         0.4092
     45 H14        -0.9158  -10.8990    1.2504 H         1 <0>         0.0690
     46 H15        -1.0074  -11.0313   -0.5222 H         1 <0>         0.0701
     47 H16         1.4142  -10.5232   -0.6853 H         1 <0>         0.0922
     48 H17         1.5058  -10.3909    1.0874 H         1 <0>         0.0861
     49 H18         1.1425  -12.9934   -1.6664 H         1 <0>         0.1331
     50 H19         1.4636  -15.3779   -1.0719 H         1 <0>         0.1321
     51 H20         1.6722  -15.9419    1.4424 H         1 <0>         0.1838
@<TRIPOS>BOND
     1    1    2 1
     2    1   32 1
     3    1   33 1
     4    1   34 1
     5    2    3 2
     6    2    4 am
     7    4    5 1
     8    4    6 1
     9    5   35 1
    10    5   36 1
    11    5   37 1
    12    6   11 ar
    13    6    7 ar
    14    7    8 ar
    15    7   38 1
    16    8    9 ar
    17    8   39 1
    18    9   10 ar
    19    9   40 1
    20   10   11 ar
    21   10   12 1
    22   11   41 1
    23   12   13 1
    24   12   42 1
    25   13   18 ar
    26   13   14 ar
    27   14   15 ar
    28   14   27 1
    29   15   16 ar
    30   15   43 1
    31   16   17 ar
    32   17   18 ar
    33   17   19 1
    34   19   20 1
    35   19   44 1
    36   20   21 1
    37   20   45 1
    38   20   46 1
    39   21   22 1
    40   21   47 1
    41   21   48 1
    42   22   26 1
    43   22   23 2
    44   23   24 1
    45   23   49 1
    46   24   25 2
    47   24   50 1
    48   25   26 1
    49   25   51 1
    50   27   28 2
    51   27   31 1
    52   28   29 1
    53   29   30 2
    54   30   31 1
@<TRIPOS>MOLECULE
CHEMBL478654__1
   52    55     0     0     0
SMALL
USER_CHARGES

@<TRIPOS>ATOM
      1 C1          3.0785   -5.6049   -2.4121 C.3       1 <0>        -0.1727
      2 C2          2.0192   -4.9905   -1.5338 C.2       1 <0>         0.5127
      3 O1          2.2287   -4.8352   -0.3493 O.2       1 <0>        -0.5259
      4 N1          0.8390   -4.6137   -2.0645 N.am      1 <0>        -0.5789
      5 C3          0.6327   -4.6803   -3.5134 C.3       1 <0>         0.0775
      6 C4         -0.1893   -4.1590   -1.2316 C.ar      1 <0>         0.1510
      7 C5         -0.1008   -2.9056   -0.6384 C.ar      1 <0>        -0.1053
      8 C6         -1.1155   -2.4557    0.1841 C.ar      1 <0>        -0.0877
      9 C7         -2.2213   -3.2500    0.4197 C.ar      1 <0>        -0.1203
     10 C8         -2.3157   -4.5044   -0.1700 C.ar      1 <0>         0.1324
     11 C9         -1.3007   -4.9566   -1.0018 C.ar      1 <0>        -0.1051
     12 N2         -3.4345   -5.3077    0.0691 N.pl3     1 <0>        -0.5800
     13 C10        -3.2928   -6.6799    0.1647 C.ar      1 <0>         0.5198
     14 C11        -4.4249   -7.5110    0.2853 C.ar      1 <0>        -0.0708
     15 C12        -4.2247   -8.8890    0.3778 C.ar      1 <0>         0.1870
     16 N3         -2.9907   -9.3631    0.3494 N.ar      1 <0>        -0.5624
     17 C13        -1.9480   -8.5519    0.2350 C.ar      1 <0>         0.6418
     18 N4         -2.0882   -7.2380    0.1390 N.ar      1 <0>        -0.5634
     19 N5         -0.6769   -9.0938    0.2097 N.pl3     1 <0>        -0.6841
     20 C14        -0.4970  -10.5444    0.3087 C.3       1 <0>         0.0983
     21 C15         0.9953  -10.8779    0.2565 C.3       1 <0>        -0.0389
     22 C16         1.1805  -12.3700    0.3583 C.2       1 <0>        -0.1658
     23 C17         1.2366  -13.2928   -0.6330 C.2       1 <0>        -0.1386
     24 C18         1.4157  -14.6227   -0.3014 C.2       1 <0>        -0.1632
     25 C19         1.5299  -14.9647    1.0052 C.2       1 <0>        -0.1590
     26 S1          1.3905  -13.3800    1.8153 S.3       1 <0>         0.0481
     27 C20        -5.7866   -6.9387    0.3134 C.2       1 <0>         0.0687
     28 N6         -6.9344   -7.6119    0.4230 N.2       1 <0>        -0.3464
     29 N7         -7.8920   -6.7489    0.4091 N.2       1 <0>        -0.1557
     30 N8         -7.3973   -5.5663    0.2958 N.2       1 <0>        -0.1491
     31 N9         -6.1118   -5.6458    0.2401 N.2       1 <0>        -0.3788
     32 H1          3.9559   -5.8429   -1.8109 H         1 <0>         0.0949
     33 H2          2.6904   -6.5170   -2.8655 H         1 <0>         0.0892
     34 H3          3.3553   -4.8992   -3.1954 H         1 <0>         0.0916
     35 H4          0.2323   -5.6586   -3.7788 H         1 <0>         0.0599
     36 H5         -0.0713   -3.9052   -3.8161 H         1 <0>         0.0777
     37 H6          1.5838   -4.5265   -4.0232 H         1 <0>         0.0812
     38 H7          0.7624   -2.2825   -0.8202 H         1 <0>         0.1279
     39 H8         -1.0441   -1.4813    0.6442 H         1 <0>         0.1384
     40 H9         -3.0129   -2.8955    1.0632 H         1 <0>         0.1371
     41 H10        -1.3740   -5.9292   -1.4656 H         1 <0>         0.1340
     42 H11        -4.3103   -4.9025    0.1680 H         1 <0>         0.4546
     43 H12        -5.0664   -9.5591    0.4717 H         1 <0>         0.2187
     44 H13         0.0961   -8.5138    0.1265 H         1 <0>         0.4380
     45 H14        -0.9158  -10.8990    1.2504 H         1 <0>         0.0866
     46 H15        -1.0074  -11.0313   -0.5222 H         1 <0>         0.0879
     47 H16         1.4142  -10.5232   -0.6853 H         1 <0>         0.1019
     48 H17         1.5058  -10.3909    1.0874 H         1 <0>         0.0966
     49 H18         1.1425  -12.9934   -1.6664 H         1 <0>         0.1347
     50 H19         1.4636  -15.3779   -1.0719 H         1 <0>         0.1376
     51 H20         1.6722  -15.9419    1.4424 H         1 <0>         0.1890
     52 H21        -2.8457  -10.3200    0.4137 H         1 <0>         0.4377
@<TRIPOS>BOND
     1    1    2 1
     2    1   32 1
     3    1   33 1
     4    1   34 1
     5    2    3 2
     6    2    4 am
     7    4    5 1
     8    4    6 1
     9    5   35 1
    10    5   36 1
    11    5   37 1
    12    6   11 ar
    13    6    7 ar
    14    7    8 ar
    15    7   38 1
    16    8    9 ar
    17    8   39 1
    18    9   10 ar
    19    9   40 1
    20   10   11 ar
    21   10   12 1
    22   11   41 1
    23   12   13 1
    24   12   42 1
    25   13   18 ar
    26   13   14 ar
    27   14   15 ar
    28   14   27 1
    29   15   16 ar
    30   15   43 1
    31   16   17 ar
    32   16   52 1
    33   17   18 ar
    34   17   19 1
    35   19   20 1
    36   19   44 1
    37   20   21 1
    38   20   45 1
    39   20   46 1
    40   21   22 1
    41   21   47 1
    42   21   48 1
    43   22   26 1
    44   22   23 2
    45   23   24 1
    46   23   49 1
    47   24   25 2
    48   24   50 1
    49   25   26 1
    50   25   51 1
    51   27   28 2
    52   27   31 1
    53   28   29 1
    54   29   30 2
    55   30   31 1
@<TRIPOS>MOLECULE
CHEMBL516110
   59    63     0     0     0
SMALL
USER_CHARGES

@<TRIPOS>ATOM
      1 C1         -0.0389    1.4645   -0.0020 C.3       1 <0>        -0.0471
      2 N1         -0.0082   -0.0042   -0.0039 N.4       1 <0>        -0.3844
      3 C2         -1.3826   -0.5207   -0.0148 C.3       1 <0>        -0.0233
      4 C3         -1.3523   -2.0482   -0.1323 C.3       1 <0>         0.0948
      5 N2         -0.5114   -2.5826    0.9500 N.pl3     1 <0>        -0.6396
      6 C4          0.8282   -2.0042    1.1370 C.3       1 <0>         0.0958
      7 C5          0.6949   -0.4788    1.1947 C.3       1 <0>        -0.0229
      8 C6         -0.9699   -3.6051    1.7732 C.ar      1 <0>         0.2275
      9 C7         -2.2804   -4.0593    1.6524 C.ar      1 <0>        -0.1951
     10 C8         -2.7374   -5.0708    2.4658 C.ar      1 <0>        -0.0040
     11 C9         -1.8839   -5.6427    3.4140 C.ar      1 <0>        -0.1718
     12 C10        -0.5684   -5.1847    3.5326 C.ar      1 <0>        -0.0339
     13 C11        -0.1159   -4.1765    2.7125 C.ar      1 <0>        -0.1936
     14 C12        -2.3706   -6.7267    4.2879 C.2       1 <0>         0.5543
     15 O1         -3.5154   -7.1239    4.1840 O.2       1 <0>        -0.4844
     16 N3         -1.5467   -7.2771    5.2015 N.am      1 <0>        -0.6363
     17 C13        -2.0090   -8.3066    6.0315 C.2       1 <0>         0.3355
     18 C14        -1.2629   -8.9639    7.0266 C.2       1 <0>        -0.2838
     19 C15        -2.0615   -9.8877    7.6006 C.2       1 <0>         0.0757
     20 N4         -3.2700   -9.8243    6.9971 N.pl3     1 <0>        -0.4391
     21 H1         -4.0412  -10.3741    7.2066 H         1 <0>         0.4479
     22 N5         -3.2148   -8.8225    6.0205 N.2       1 <0>        -0.2483
     23 C16        -1.2931  -10.6143    8.6754 C.3       1 <0>         0.1781
     24 N6          0.0602  -10.0480    8.7093 N.am      1 <0>        -0.6166
     25 C17         0.0971   -9.0062    7.6765 C.3       1 <0>         0.1934
     26 C18         1.0683  -10.4119    9.5265 C.2       1 <0>         0.5427
     27 O2          2.1435   -9.8564    9.4477 O.2       1 <0>        -0.5097
     28 C19         0.8595  -11.5091   10.5383 C.3       1 <0>        -0.0496
     29 C20         2.1306  -11.7206   11.3196 C.2       1 <0>        -0.1405
     30 C21         2.5319  -11.1317   12.4726 C.2       1 <0>        -0.1387
     31 C22         3.7525  -11.4851   13.0164 C.2       1 <0>        -0.1586
     32 C23         4.5123  -12.4102   12.3805 C.2       1 <0>        -0.1670
     33 S1          3.4953  -12.8175   10.9708 S.3       1 <0>         0.0490
     34 H2          0.9809    1.8492   -0.0020 H         1 <0>         0.1258
     35 H3         -0.5606    1.8181   -0.8913 H         1 <0>         0.1258
     36 H4         -0.5598    1.8158    0.8886 H         1 <0>         0.1221
     37 H5         -1.8847   -0.2373    0.9103 H         1 <0>         0.1335
     38 H6         -1.9217   -0.1015   -0.8643 H         1 <0>         0.1430
     39 H7         -2.3640   -2.4429   -0.0390 H         1 <0>         0.1298
     40 H8         -0.9324   -2.3330   -1.0971 H         1 <0>         0.0921
     41 H9          1.2581   -2.3698    2.0695 H         1 <0>         0.1290
     42 H10         1.4683   -2.2845    0.3005 H         1 <0>         0.0916
     43 H11         1.6868   -0.0286    1.2363 H         1 <0>         0.1429
     44 H12         0.1300   -0.1967    2.0831 H         1 <0>         0.1334
     45 H13        -2.9392   -3.6171    0.9197 H         1 <0>         0.1325
     46 H14        -3.7543   -5.4222    2.3721 H         1 <0>         0.1443
     47 H15         0.0933   -5.6245    4.2641 H         1 <0>         0.1325
     48 H16         0.9015   -3.8250    2.8008 H         1 <0>         0.1324
     49 H17        -0.6337   -6.9603    5.2844 H         1 <0>         0.4197
     50 H18        -1.7793  -10.4692    9.6401 H         1 <0>         0.0980
     51 H19        -1.2437  -11.6775    8.4405 H         1 <0>         0.0980
     52 H20         0.8554   -9.2496    6.9323 H         1 <0>         0.0782
     53 H21         0.3198   -8.0413    8.1319 H         1 <0>         0.0779
     54 H22         0.0568  -11.2270   11.2197 H         1 <0>         0.1197
     55 H23         0.5916  -12.4318   10.0236 H         1 <0>         0.1130
     56 H24         1.9073  -10.3970   12.9590 H         1 <0>         0.1312
     57 H25         4.0960  -11.0308   13.9340 H         1 <0>         0.1351
     58 H26         5.4799  -12.8022   12.6571 H         1 <0>         0.1870
     59 H27         0.4768   -0.3282   -0.8272 H         1 <0>         0.4253
@<TRIPOS>BOND
     1    1    2 1
     2    1   34 1
     3    1   35 1
     4    1   36 1
     5    2    7 1
     6    2    3 1
     7    2   59 1
     8    3    4 1
     9    3   37 1
    10    3   38 1
    11    4    5 1
    12    4   39 1
    13    4   40 1
    14    5    6 1
    15    5    8 1
    16    6    7 1
    17    6   41 1
    18    6   42 1
    19    7   43 1
    20    7   44 1
    21    8   13 ar
    22    8    9 ar
    23    9   10 ar
    24    9   45 1
    25   10   11 ar
    26   10   46 1
    27   11   12 ar
    28   11   14 1
    29   12   13 ar
    30   12   47 1
    31   13   48 1
    32   14   15 2
    33   14   16 am
    34   16   17 1
    35   16   49 1
    36   17   22 2
    37   17   18 1
    38   18   25 1
    39   18   19 2
    40   19   20 1
    41   19   23 1
    42   20   21 1
    43   20   22 1
    44   23   24 1
    45   23   50 1
    46   23   51 1
    47   24   25 1
    48   24   26 am
    49   25   52 1
    50   25   53 1
    51   26   27 2
    52   26   28 1
    53   28   29 1
    54   28   54 1
    55   28   55 1
    56   29   33 1
    57   29   30 2
    58   30   31 1
    59   30   56 1
    60   31   32 2
    61   31   57 1
    62   32   33 1
    63   32   58 1
@<TRIPOS>MOLECULE
CHEMBL516110__1
   59    63     0     0     0
SMALL
USER_CHARGES

@<TRIPOS>ATOM
      1 C1         -0.0389    1.4645   -0.0020 C.3       1 <0>        -0.0473
      2 N1         -0.0082   -0.0042   -0.0039 N.4       1 <0>        -0.3846
      3 C2         -1.3826   -0.5208   -0.0148 C.3       1 <0>        -0.0233
      4 C3         -1.3523   -2.0482   -0.1323 C.3       1 <0>         0.0940
      5 N2         -0.5114   -2.5826    0.9500 N.pl3     1 <0>        -0.6385
      6 C4          0.8282   -2.0042    1.1370 C.3       1 <0>         0.0948
      7 C5          0.6949   -0.4788    1.1947 C.3       1 <0>        -0.0229
      8 C6         -0.9699   -3.6051    1.7732 C.ar      1 <0>         0.2348
      9 C7         -2.2804   -4.0593    1.6523 C.ar      1 <0>        -0.1964
     10 C8         -2.7372   -5.0711    2.4654 C.ar      1 <0>         0.0010
     11 C9         -1.8837   -5.6433    3.4134 C.ar      1 <0>        -0.1809
     12 C10        -0.5681   -5.1853    3.5320 C.ar      1 <0>        -0.0289
     13 C11        -0.1159   -4.1765    2.7125 C.ar      1 <0>        -0.1940
     14 C12        -2.3702   -6.7276    4.2869 C.2       1 <0>         0.5689
     15 O1         -3.5149   -7.1248    4.1829 O.2       1 <0>        -0.5248
     16 N3         -1.5462   -7.2782    5.2002 N.am      1 <0>        -0.6403
     17 C13        -2.0060   -8.3029    6.0257 C.2       1 <0>         0.3550
     18 C14        -1.2871   -8.9474    6.9871 C.2       1 <0>        -0.3077
     19 C15        -2.1181   -9.9007    7.5782 C.2       1 <0>         0.0684
     20 N4         -3.2931   -9.8390    7.0010 N.2       1 <0>        -0.2417
     21 H1         -3.9871   -8.5744    5.4451 H         1 <0>         0.4562
     22 N5         -3.2539   -8.8376    6.0231 N.pl3     1 <0>        -0.4538
     23 C16        -1.3365  -10.6240    8.6460 C.3       1 <0>         0.1908
     24 N6          0.0156  -10.0579    8.6717 N.am      1 <0>        -0.6163
     25 C17         0.0670   -9.0119    7.6457 C.3       1 <0>         0.2032
     26 C18         1.0231  -10.4297    9.4862 C.2       1 <0>         0.5426
     27 O2          2.1009   -9.8791    9.4078 O.2       1 <0>        -0.5141
     28 C19         0.8103  -11.5294   10.4944 C.3       1 <0>        -0.0508
     29 C20         2.0815  -11.7498   11.2731 C.2       1 <0>        -0.1375
     30 C21         2.4872  -11.1670   12.4277 C.2       1 <0>        -0.1402
     31 C22         3.7069  -11.5283   12.9685 C.2       1 <0>        -0.1580
     32 C23         4.4612  -12.4548   12.3282 C.2       1 <0>        -0.1687
     33 S1          3.4403  -12.8521   10.9185 S.3       1 <0>         0.0482
     34 H2          0.9809    1.8492   -0.0020 H         1 <0>         0.1263
     35 H3         -0.5606    1.8181   -0.8913 H         1 <0>         0.1262
     36 H4         -0.5598    1.8158    0.8886 H         1 <0>         0.1223
     37 H5         -1.8848   -0.2373    0.9102 H         1 <0>         0.1338
     38 H6         -1.9217   -0.1015   -0.8643 H         1 <0>         0.1438
     39 H7         -2.3640   -2.4429   -0.0390 H         1 <0>         0.1301
     40 H8         -0.9324   -2.3330   -1.0971 H         1 <0>         0.0935
     41 H9          1.2581   -2.3698    2.0695 H         1 <0>         0.1294
     42 H10         1.4683   -2.2845    0.3005 H         1 <0>         0.0930
     43 H11         1.6868   -0.0286    1.2363 H         1 <0>         0.1438
     44 H12         0.1300   -0.1967    2.0831 H         1 <0>         0.1337
     45 H13        -2.9392   -3.6169    0.9198 H         1 <0>         0.1346
     46 H14        -3.7541   -5.4225    2.3717 H         1 <0>         0.1454
     47 H15         0.0937   -5.6253    4.2633 H         1 <0>         0.1337
     48 H16         0.9014   -3.8247    2.8011 H         1 <0>         0.1347
     49 H17        -0.6331   -6.9614    5.2831 H         1 <0>         0.4276
     50 H18        -1.8151  -10.4808    9.6148 H         1 <0>         0.0989
     51 H19        -1.2872  -11.6872    8.4112 H         1 <0>         0.0988
     52 H20         0.8269   -9.2588    6.9043 H         1 <0>         0.0757
     53 H21         0.2990   -8.0524    8.1079 H         1 <0>         0.0754
     54 H22         0.0100  -11.2458   11.1779 H         1 <0>         0.1207
     55 H23         0.5372  -12.4489    9.9768 H         1 <0>         0.1139
     56 H24         1.8669  -10.4310   12.9175 H         1 <0>         0.1313
     57 H25         4.0538  -11.0789   13.8872 H         1 <0>         0.1345
     58 H26         5.4273  -12.8525   12.6020 H         1 <0>         0.1864
     59 H27         0.4768   -0.3282   -0.8272 H         1 <0>         0.4255
@<TRIPOS>BOND
     1    1    2 1
     2    1   34 1
     3    1   35 1
     4    1   36 1
     5    2    7 1
     6    2    3 1
     7    2   59 1
     8    3    4 1
     9    3   37 1
    10    3   38 1
    11    4    5 1
    12    4   39 1
    13    4   40 1
    14    5    6 1
    15    5    8 1
    16    6    7 1
    17    6   41 1
    18    6   42 1
    19    7   43 1
    20    7   44 1
    21    8   13 ar
    22    8    9 ar
    23    9   10 ar
    24    9   45 1
    25   10   11 ar
    26   10   46 1
    27   11   12 ar
    28   11   14 1
    29   12   13 ar
    30   12   47 1
    31   13   48 1
    32   14   15 2
    33   14   16 am
    34   16   49 1
    35   16   17 1
    36   17   18 2
    37   17   22 1
    38   18   19 1
    39   18   25 1
    40   19   20 2
    41   19   23 1
    42   20   22 1
    43   21   22 1
    44   23   24 1
    45   23   50 1
    46   23   51 1
    47   24   25 1
    48   24   26 am
    49   25   52 1
    50   25   53 1
    51   26   27 2
    52   26   28 1
    53   28   29 1
    54   28   54 1
    55   28   55 1
    56   29   33 1
    57   29   30 2
    58   30   31 1
    59   30   56 1
    60   31   32 2
    61   31   57 1
    62   32   33 1
    63   32   58 1
@<TRIPOS>MOLECULE
CHEMBL559891
   43    46     0     0     0
SMALL
USER_CHARGES

@<TRIPOS>ATOM
      1 C1         -0.0167    1.3779    0.0096 C.ar      1 <0>        -0.0837
      2 C2          1.1711    2.0854    0.0021 C.ar      1 <0>        -0.1179
      3 C3          2.3773    1.4107   -0.0130 C.ar      1 <0>        -0.0721
      4 C4          2.3960    0.0283   -0.0201 C.ar      1 <0>        -0.1797
      5 C5          1.2086   -0.6790   -0.0117 C.ar      1 <0>        -0.0431
      6 C6          0.0021   -0.0041    0.0020 C.ar      1 <0>        -0.0945
      7 C7          1.2291   -2.1858   -0.0204 C.3       1 <0>         0.0776
      8 O1         -0.1116   -2.6804   -0.0091 O.3       1 <0>        -0.2680
      9 C8         -0.2712   -4.0290   -0.0151 C.2       1 <0>         0.1979
     10 C9          0.8152   -4.8635   -0.0255 C.2       1 <0>        -0.2533
     11 C10         0.6029   -6.2342   -0.0313 C.2       1 <0>         0.0298
     12 S1         -1.1786   -6.3439   -0.0218 S.3       1 <0>         0.1086
     13 C11        -1.5450   -4.5969   -0.0049 C.2       1 <0>        -0.2999
     14 C12        -2.8026   -3.9545    0.0127 C.2       1 <0>         0.6138
     15 O2         -2.8650   -2.7376    0.0211 O.2       1 <0>        -0.5284
     16 N1         -3.9336   -4.6873    0.0203 N.am      1 <0>        -0.8558
     17 C13         1.5952   -7.3223   -0.0432 C.2       1 <0>        -0.2145
     18 C14         2.6902   -7.4428   -0.9099 C.2       1 <0>         0.1253
     19 N2          3.3431   -8.5402   -0.6165 N.2       1 <0>        -0.3103
     20 N3          2.7103   -9.1881    0.4513 N.pl3     1 <0>        -0.2669
     21 C15         1.6272   -8.4334    0.8159 C.2       1 <0>         0.1411
     22 C16         0.8056   -8.8461    1.8746 C.2       1 <0>        -0.1235
     23 C17         1.1003  -10.0017    2.5355 C.2       1 <0>        -0.0623
     24 C18         2.2177  -10.7551    2.1451 C.2       1 <0>        -0.1585
     25 C19         2.9926  -10.3451    1.1175 C.2       1 <0>         0.1179
     26 C20         3.7112   -0.7073   -0.0376 C.3       1 <0>         0.5064
     27 F1          4.7620    0.2161   -0.0440 F         1 <0>        -0.1729
     28 F2          3.8081   -1.5163    1.0997 F         1 <0>        -0.1761
     29 F3          3.7842   -1.5049   -1.1847 F         1 <0>        -0.1759
     30 H1         -0.9591    1.9051    0.0259 H         1 <0>         0.1366
     31 H2          1.1565    3.1653    0.0076 H         1 <0>         0.1373
     32 H3          3.3051    1.9634   -0.0196 H         1 <0>         0.1415
     33 H4         -0.9258   -0.5567    0.0079 H         1 <0>         0.1537
     34 H5          1.7384   -2.5371   -0.9178 H         1 <0>         0.0889
     35 H6          1.7571   -2.5471    0.8621 H         1 <0>         0.0885
     36 H7          1.8178   -4.4618   -0.0295 H         1 <0>         0.1501
     37 H8         -3.8839   -5.6560    0.0136 H         1 <0>         0.3970
     38 H9         -4.7974   -4.2461    0.0324 H         1 <0>         0.4071
     39 H10         2.9525   -6.7454   -1.6918 H         1 <0>         0.2010
     40 H11        -0.0509   -8.2550    2.1636 H         1 <0>         0.1506
     41 H12         0.4785  -10.3344    3.3535 H         1 <0>         0.1490
     42 H13         2.4559  -11.6713    2.6650 H         1 <0>         0.1622
     43 H14         3.8508  -10.9331    0.8275 H         1 <0>         0.1756
@<TRIPOS>BOND
     1    1    6 ar
     2    1    2 ar
     3    1   30 1
     4    2    3 ar
     5    2   31 1
     6    3    4 ar
     7    3   32 1
     8    4    5 ar
     9    4   26 1
    10    5    6 ar
    11    5    7 1
    12    6   33 1
    13    7    8 1
    14    7   34 1
    15    7   35 1
    16    8    9 1
    17    9   13 2
    18    9   10 1
    19   10   11 2
    20   10   36 1
    21   11   12 1
    22   11   17 1
    23   12   13 1
    24   13   14 1
    25   14   15 2
    26   14   16 am
    27   16   37 1
    28   16   38 1
    29   17   21 2
    30   17   18 1
    31   18   19 2
    32   18   39 1
    33   19   20 1
    34   20   25 1
    35   20   21 1
    36   21   22 1
    37   22   23 2
    38   22   40 1
    39   23   24 1
    40   23   41 1
    41   24   25 2
    42   24   42 1
    43   25   43 1
    44   26   27 1
    45   26   28 1
    46   26   29 1
@<TRIPOS>MOLECULE
CHEMBL1208892
   56    60     0     0     0
SMALL
USER_CHARGES

@<TRIPOS>ATOM
      1 C1         -0.2378    1.5009   -0.1012 C.3       1 <0>        -0.1931
      2 C2          0.0024   -0.0065    0.0031 C.3       1 <0>         0.1025
      3 H1         -0.9537   -0.5208    0.1015 H         1 <0>         0.0911
      4 C3          0.8555   -0.2969    1.2109 C.ar      1 <0>        -0.0417
      5 C4          2.2264   -0.4161    1.0764 C.ar      1 <0>        -0.0897
      6 C5          3.0089   -0.6824    2.1842 C.ar      1 <0>        -0.0839
      7 C6          2.4208   -0.8291    3.4268 C.ar      1 <0>        -0.1144
      8 C7          1.0505   -0.7090    3.5614 C.ar      1 <0>        -0.0720
      9 C8          0.2682   -0.4384    2.4541 C.ar      1 <0>        -0.1767
     10 C9         -1.2253   -0.3022    2.6017 C.3       1 <0>         0.5054
     11 F1         -1.5800   -0.4848    3.9426 F         1 <0>        -0.1710
     12 F2         -1.6208    0.9731    2.1842 F         1 <0>        -0.1711
     13 F3         -1.8617   -1.2685    1.8153 F         1 <0>        -0.1759
     14 O1          0.6709   -0.4649   -1.1737 O.3       1 <0>        -0.2565
     15 C10        -0.1062   -0.7743   -2.2432 C.2       1 <0>         0.1991
     16 C11        -1.4598   -0.5443   -2.2209 C.2       1 <0>        -0.2318
     17 C12        -2.2098   -0.8697   -3.3186 C.2       1 <0>         0.1136
     18 S1         -0.9851   -1.5266   -4.4387 S.3       1 <0>         0.1535
     19 C13         0.4497   -1.3286   -3.3949 C.2       1 <0>        -0.2744
     20 C14         1.7985   -1.6516   -3.6655 C.2       1 <0>         0.6125
     21 O2          2.6547   -1.4463   -2.8236 O.2       1 <0>        -0.5172
     22 N1          2.1377   -2.1868   -4.8550 N.am      1 <0>        -0.8526
     23 N2         -3.5805   -0.7254   -3.5123 N.pl3     1 <0>        -0.4140
     24 C15        -4.5650   -1.1325   -2.6604 C.2       1 <0>         0.2790
     25 N3         -5.7321   -0.8401   -3.1543 N.2       1 <0>        -0.4633
     26 C16        -5.5795   -0.2255   -4.3565 C.ar      1 <0>         0.0463
     27 C17        -4.1971   -0.1376   -4.6010 C.ar      1 <0>         0.0623
     28 C18        -3.7315    0.4563   -5.7667 C.ar      1 <0>        -0.1092
     29 C19        -4.6144    0.9605   -6.6792 C.ar      1 <0>        -0.0629
     30 C20        -5.9919    0.8847   -6.4498 C.ar      1 <0>        -0.0639
     31 C21        -6.4767    0.2865   -5.2936 C.ar      1 <0>        -0.0025
     32 C22        -6.9384    1.4369   -7.4483 C.ar      1 <0>         0.2673
     33 C23        -6.4722    1.9348   -8.6686 C.ar      1 <0>        -0.2824
     34 C24        -7.3926    2.4395   -9.5690 C.ar      1 <0>         0.1986
     35 N4         -8.6780    2.4365   -9.2517 N.ar      1 <0>        -0.5751
     36 C25        -9.0921    1.9582   -8.0874 C.ar      1 <0>         0.5735
     37 N5         -8.2458    1.4612   -7.1990 N.ar      1 <0>        -0.5681
     38 N6        -10.4448    1.9740   -7.7947 N.pl3     1 <0>        -0.8206
     39 H2          0.7183    2.0152   -0.1995 H         1 <0>         0.0774
     40 H3         -0.8549    1.7109   -0.9748 H         1 <0>         0.0696
     41 H4         -0.7477    1.8506    0.7965 H         1 <0>         0.0972
     42 H5          2.6857   -0.3015    0.1057 H         1 <0>         0.1486
     43 H6          4.0796   -0.7763    2.0790 H         1 <0>         0.1374
     44 H7          3.0322   -1.0379    4.2923 H         1 <0>         0.1385
     45 H8          0.5911   -0.8240    4.5321 H         1 <0>         0.1425
     46 H9         -1.9268   -0.1124   -1.3481 H         1 <0>         0.1592
     47 H10         1.4559   -2.3503   -5.5254 H         1 <0>         0.3977
     48 H11         3.0636   -2.4085   -5.0408 H         1 <0>         0.4104
     49 H12        -4.3994   -1.6259   -1.7141 H         1 <0>         0.2238
     50 H13        -2.6695    0.5201   -5.9521 H         1 <0>         0.1326
     51 H14        -4.2460    1.4212   -7.5838 H         1 <0>         0.1442
     52 H15        -7.5405    0.2291   -5.1160 H         1 <0>         0.1500
     53 H16        -5.4179    1.9258   -8.9026 H         1 <0>         0.1478
     54 H17        -7.0662    2.8322  -10.5207 H         1 <0>         0.1712
     55 H18       -11.0762    2.3322   -8.4381 H         1 <0>         0.4159
     56 H19       -10.7615    1.6270   -6.9460 H         1 <0>         0.4153
@<TRIPOS>BOND
     1    1    2 1
     2    1   39 1
     3    1   40 1
     4    1   41 1
     5    2    3 1
     6    2    4 1
     7    2   14 1
     8    4    9 ar
     9    4    5 ar
    10    5    6 ar
    11    5   42 1
    12    6    7 ar
    13    6   43 1
    14    7    8 ar
    15    7   44 1
    16    8    9 ar
    17    8   45 1
    18    9   10 1
    19   10   11 1
    20   10   12 1
    21   10   13 1
    22   14   15 1
    23   15   19 2
    24   15   16 1
    25   16   17 2
    26   16   46 1
    27   17   18 1
    28   17   23 1
    29   18   19 1
    30   19   20 1
    31   20   21 2
    32   20   22 am
    33   22   47 1
    34   22   48 1
    35   23   27 1
    36   23   24 1
    37   24   25 2
    38   24   49 1
    39   25   26 1
    40   26   31 ar
    41   26   27 ar
    42   27   28 ar
    43   28   29 ar
    44   28   50 1
    45   29   30 ar
    46   29   51 1
    47   30   31 ar
    48   30   32 1
    49   31   52 1
    50   32   37 ar
    51   32   33 ar
    52   33   34 ar
    53   33   53 1
    54   34   35 ar
    55   34   54 1
    56   35   36 ar
    57   36   37 ar
    58   36   38 1
    59   38   55 1
    60   38   56 1
@<TRIPOS>MOLECULE
CHEMBL162
   62    69     0     0     0
SMALL
USER_CHARGES

@<TRIPOS>ATOM
      1 C1         -0.1276    1.5938   -0.2902 C.3       1 <0>        -0.1687
      2 C2         -0.0844    0.0680   -0.1855 C.3       1 <0>         0.3345
      3 C3          0.5692   -0.4497   -1.4608 C.3       1 <0>         0.0405
      4 H1          1.4795    0.1163   -1.6584 H         1 <0>         0.1372
      5 C4          0.9165   -1.9328   -1.2885 C.3       1 <0>        -0.0062
      6 H2          1.3941   -2.3067   -2.1942 H         1 <0>         0.1555
      7 C5          1.8808   -2.0612   -0.1039 C.3       1 <0>        -0.1828
      8 C6          1.2106   -1.5234    1.1545 C.3       1 <0>         0.3001
      9 O1          0.6584   -0.2480    0.9698 O.3       1 <0>        -0.3232
     10 N1          0.2248   -2.4800    1.6600 N.pl3     1 <0>        -0.5368
     11 C7          0.4774   -3.5588    2.4701 C.ar      1 <0>         0.1470
     12 C8          1.6719   -4.0282    3.0159 C.ar      1 <0>        -0.1521
     13 C9          1.6013   -5.1613    3.8083 C.ar      1 <0>        -0.0582
     14 C10         0.4065   -5.8141    4.0588 C.ar      1 <0>        -0.1457
     15 C11        -0.7928   -5.3694    3.5296 C.ar      1 <0>        -0.0281
     16 C12        -0.7420   -4.2270    2.7281 C.ar      1 <0>        -0.1133
     17 C13        -1.7834   -3.4873    2.0211 C.ar      1 <0>         0.0272
     18 C14        -1.1387   -2.4235    1.3862 C.ar      1 <0>         0.0375
     19 C15        -1.8766   -1.5121    0.6225 C.ar      1 <0>         0.0893
     20 N2         -1.4701   -0.3965   -0.1042 N.pl3     1 <0>        -0.5183
     21 C16        -2.5609    0.1893   -0.7020 C.ar      1 <0>         0.1620
     22 C17        -2.6555    1.3256   -1.5046 C.ar      1 <0>        -0.1301
     23 C18        -3.9158    1.6704   -1.9636 C.ar      1 <0>        -0.0737
     24 C19        -5.0430    0.9315   -1.6503 C.ar      1 <0>        -0.1357
     25 C20        -4.9749   -0.2010   -0.8555 C.ar      1 <0>        -0.0503
     26 C21        -3.7134   -0.5626   -0.3834 C.ar      1 <0>        -0.1044
     27 C22        -3.2655   -1.6685    0.4924 C.ar      1 <0>        -0.0362
     28 C23        -3.9045   -2.7331    1.1195 C.ar      1 <0>        -0.0289
     29 C24        -3.1819   -3.6452    1.8815 C.ar      1 <0>        -0.1255
     30 C25        -4.1160   -4.6505    2.4114 C.2       1 <0>         0.5633
     31 O2         -3.7988   -5.5888    3.1172 O.2       1 <0>        -0.5106
     32 N3         -5.3694   -4.3854    2.0058 N.am      1 <0>        -0.7162
     33 C26        -5.3459   -3.1769    1.1740 C.3       1 <0>         0.1359
     34 N4         -0.3065   -2.7008   -1.0194 N.4       1 <0>        -0.5253
     35 C27         0.0148   -4.1335   -0.9747 C.3       1 <0>        -0.0497
     36 O3         -0.3352   -0.2957   -2.5564 O.3       1 <0>        -0.3613
     37 C28         0.3074   -0.0892   -3.8159 C.3       1 <0>         0.0162
     38 H3          0.8308    2.0068    0.0247 H         1 <0>         0.0984
     39 H4         -0.3256    1.8817   -1.3227 H         1 <0>         0.1037
     40 H5         -0.9185    1.9799    0.3528 H         1 <0>         0.0921
     41 H6          2.1400   -3.1098    0.0419 H         1 <0>         0.1233
     42 H7          2.7852   -1.4878   -0.3076 H         1 <0>         0.1455
     43 H8          1.9835   -1.4379    1.9183 H         1 <0>         0.1550
     44 H9          2.6113   -3.5296    2.8282 H         1 <0>         0.1364
     45 H10         2.5093   -5.5494    4.2456 H         1 <0>         0.1359
     46 H11         0.4102   -6.6943    4.6846 H         1 <0>         0.1352
     47 H12        -1.7231   -5.8814    3.7271 H         1 <0>         0.1602
     48 H13        -1.7841    1.9115   -1.7569 H         1 <0>         0.1438
     49 H14        -4.0225    2.5459   -2.5869 H         1 <0>         0.1335
     50 H15        -6.0015    1.2460   -2.0361 H         1 <0>         0.1333
     51 H16        -5.8562   -0.7761   -0.6128 H         1 <0>         0.1416
     52 H17        -6.1577   -4.9060    2.2257 H         1 <0>         0.4348
     53 H18        -5.9609   -2.3989    1.6262 H         1 <0>         0.1115
     54 H19        -5.7062   -3.4047    0.1708 H         1 <0>         0.1104
     55 H20        -0.6946   -2.4153   -0.1328 H         1 <0>         0.4186
     56 H21         0.7414   -4.3184   -0.1836 H         1 <0>         0.1191
     57 H22        -0.8927   -4.7033   -0.7750 H         1 <0>         0.1256
     58 H23         0.4340   -4.4418   -1.9324 H         1 <0>         0.1255
     59 H24        -0.4469    0.0185   -4.5954 H         1 <0>         0.1100
     60 H25         0.9142    0.8152   -3.7703 H         1 <0>         0.0633
     61 H26         0.9451   -0.9435   -4.0429 H         1 <0>         0.0514
     62 H27        -0.9792   -2.5296   -1.7517 H         1 <0>         0.4274
@<TRIPOS>BOND
     1    1    2 1
     2    1   38 1
     3    1   39 1
     4    1   40 1
     5    2    9 1
     6    2   20 1
     7    2    3 1
     8    3    4 1
     9    3    5 1
    10    3   36 1
    11    5    6 1
    12    5    7 1
    13    5   34 1
    14    7    8 1
    15    7   41 1
    16    7   42 1
    17    8    9 1
    18    8   10 1
    19    8   43 1
    20   10   18 1
    21   10   11 1
    22   11   16 ar
    23   11   12 ar
    24   12   13 ar
    25   12   44 1
    26   13   14 ar
    27   13   45 1
    28   14   15 ar
    29   14   46 1
    30   15   16 ar
    31   15   47 1
    32   16   17 1
    33   17   29 ar
    34   17   18 ar
    35   18   19 ar
    36   19   27 ar
    37   19   20 1
    38   20   21 1
    39   21   26 ar
    40   21   22 ar
    41   22   23 ar
    42   22   48 1
    43   23   24 ar
    44   23   49 1
    45   24   25 ar
    46   24   50 1
    47   25   26 ar
    48   25   51 1
    49   26   27 1
    50   27   28 ar
    51   28   33 1
    52   28   29 ar
    53   29   30 1
    54   30   31 2
    55   30   32 am
    56   32   33 1
    57   32   52 1
    58   33   53 1
    59   33   54 1
    60   34   35 1
    61   34   55 1
    62   34   62 1
    63   35   56 1
    64   35   57 1
    65   35   58 1
    66   36   37 1
    67   37   59 1
    68   37   60 1
    69   37   61 1
@<TRIPOS>MOLECULE
CHEMBL162__1
   61    68     0     0     0
SMALL
USER_CHARGES

@<TRIPOS>ATOM
      1 C1         -0.0567    1.5513   -0.0894 C.3       1 <0>        -0.1681
      2 C2         -0.0278    0.0218   -0.0599 C.3       1 <0>         0.3623
      3 C3          0.5811   -0.4397   -1.3782 C.3       1 <0>         0.0679
      4 H1          1.4914    0.1262   -1.5761 H         1 <0>         0.0865
      5 C4          0.9165   -1.9328   -1.2885 C.3       1 <0>         0.0550
      6 H2          1.3622   -2.2669   -2.2254 H         1 <0>         0.0644
      7 C5          1.9146   -2.1282   -0.1417 C.3       1 <0>        -0.1713
      8 C6          1.2889   -1.6457    1.1613 C.3       1 <0>         0.3303
      9 O1          0.7459   -0.3574    1.0554 O.3       1 <0>        -0.3432
     10 N1          0.3079   -2.6158    1.6500 N.pl3     1 <0>        -0.5147
     11 C7          0.5725   -3.7353    2.3988 C.ar      1 <0>         0.1480
     12 C8          1.7775   -4.2425    2.8844 C.ar      1 <0>        -0.1567
     13 C9          1.7179   -5.4120    3.6229 C.ar      1 <0>        -0.0771
     14 C10         0.5239   -6.0644    3.8782 C.ar      1 <0>        -0.1623
     15 C11        -0.6857   -5.5826    3.4081 C.ar      1 <0>        -0.0380
     16 C12        -0.6461   -4.4031    2.6615 C.ar      1 <0>        -0.1052
     17 C13        -1.6998   -3.6196    2.0235 C.ar      1 <0>        -0.0146
     18 C14        -1.0625   -2.5326    1.4212 C.ar      1 <0>         0.1328
     19 C15        -1.8127   -1.5778    0.7254 C.ar      1 <0>         0.2189
     20 N2         -1.4156   -0.4323    0.0413 N.pl3     1 <0>        -0.4798
     21 C16        -2.5171    0.1927   -0.4937 C.ar      1 <0>         0.1719
     22 C17        -2.6230    1.3676   -1.2371 C.ar      1 <0>        -0.1371
     23 C18        -3.8926    1.7468   -1.6400 C.ar      1 <0>        -0.0918
     24 C19        -5.0181    1.0048   -1.3284 C.ar      1 <0>        -0.1543
     25 C20        -4.9390   -0.1657   -0.5916 C.ar      1 <0>        -0.0609
     26 C21        -3.6680   -0.5623   -0.1765 C.ar      1 <0>        -0.0961
     27 C22        -3.2066   -1.7140    0.6307 C.ar      1 <0>        -0.0806
     28 C23        -3.8384   -2.8014    1.2249 C.ar      1 <0>        -0.0396
     29 C24        -3.1037   -3.7566    1.9194 C.ar      1 <0>        -0.1488
     30 C25        -4.0327   -4.7771    2.4285 C.2       1 <0>         0.5678
     31 O2         -3.7051   -5.7517    3.0781 O.2       1 <0>        -0.5303
     32 N3         -5.2947   -4.4802    2.0748 N.am      1 <0>        -0.7263
     33 C26        -5.2825   -3.2330    1.3021 C.3       1 <0>         0.1443
     34 N4         -0.3065   -2.7008   -1.0194 N.3       1 <0>        -0.6725
     35 C27        -0.9816   -3.0711   -2.2704 C.3       1 <0>         0.0321
     36 O3         -0.3541   -0.2236   -2.4368 O.3       1 <0>        -0.3500
     37 C28         0.2525    0.0376   -3.7040 C.3       1 <0>         0.0254
     38 H3          0.9143    1.9390    0.2190 H         1 <0>         0.0847
     39 H4         -0.2789    1.8910   -1.1010 H         1 <0>         0.0945
     40 H5         -0.8258    1.9134    0.5927 H         1 <0>         0.0811
     41 H6          2.1661   -3.1852   -0.0547 H         1 <0>         0.0955
     42 H7          2.8189   -1.5546   -0.3450 H         1 <0>         0.1024
     43 H8          2.0854   -1.6051    1.9042 H         1 <0>         0.1256
     44 H9          2.7165   -3.7447    2.6923 H         1 <0>         0.1264
     45 H10         2.6343   -5.8299    4.0129 H         1 <0>         0.1227
     46 H11         0.5364   -6.9739    4.4603 H         1 <0>         0.1222
     47 H12        -1.6153   -6.0942    3.6091 H         1 <0>         0.1517
     48 H13        -1.7529    1.9564   -1.4875 H         1 <0>         0.1345
     49 H14        -4.0081    2.6526   -2.2167 H         1 <0>         0.1197
     50 H15        -5.9842    1.3471   -1.6689 H         1 <0>         0.1193
     51 H16        -5.8191   -0.7431   -0.3501 H         1 <0>         0.1299
     52 H17        -6.0819   -5.0031    2.2935 H         1 <0>         0.4244
     53 H18        -5.8747   -2.4718    1.8101 H         1 <0>         0.0969
     54 H19        -5.6755   -3.4081    0.3006 H         1 <0>         0.0963
     55 H20        -0.1054   -3.5172   -0.4616 H         1 <0>         0.3444
     56 H21        -1.8838   -3.6387   -2.0422 H         1 <0>         0.0645
     57 H22        -1.2495   -2.1685   -2.8197 H         1 <0>         0.0818
     58 H23        -0.3126   -3.6808   -2.8776 H         1 <0>         0.0150
     59 H24        -0.5237    0.1905   -4.4538 H         1 <0>         0.0929
     60 H25         0.8707    0.9325   -3.6333 H         1 <0>         0.0448
     61 H26         0.8732   -0.8111   -3.9915 H         1 <0>         0.0400
@<TRIPOS>BOND
     1    1    2 1
     2    1   38 1
     3    1   39 1
     4    1   40 1
     5    2    9 1
     6    2   20 1
     7    2    3 1
     8    3    4 1
     9    3    5 1
    10    3   36 1
    11    5    6 1
    12    5    7 1
    13    5   34 1
    14    7    8 1
    15    7   41 1
    16    7   42 1
    17    8    9 1
    18    8   10 1
    19    8   43 1
    20   10   18 1
    21   10   11 1
    22   11   16 ar
    23   11   12 ar
    24   12   13 ar
    25   12   44 1
    26   13   14 ar
    27   13   45 1
    28   14   15 ar
    29   14   46 1
    30   15   16 ar
    31   15   47 1
    32   16   17 1
    33   17   29 ar
    34   17   18 ar
    35   18   19 ar
    36   19   27 ar
    37   19   20 1
    38   20   21 1
    39   21   26 ar
    40   21   22 ar
    41   22   23 ar
    42   22   48 1
    43   23   24 ar
    44   23   49 1
    45   24   25 ar
    46   24   50 1
    47   25   26 ar
    48   25   51 1
    49   26   27 1
    50   27   28 ar
    51   28   33 1
    52   28   29 ar
    53   29   30 1
    54   30   31 2
    55   30   32 am
    56   32   33 1
    57   32   52 1
    58   33   53 1
    59   33   54 1
    60   34   35 1
    61   34   55 1
    62   35   56 1
    63   35   57 1
    64   35   58 1
    65   36   37 1
    66   37   59 1
    67   37   60 1
    68   37   61 1
@<TRIPOS>MOLECULE
CHEMBL523634
   41    44     0     0     0
SMALL
USER_CHARGES

@<TRIPOS>ATOM
      1 C1         -1.7008    0.9020    0.3194 C.3       1 <0>        -0.0981
      2 C2         -0.7919   -0.2877    0.1479 C.2       1 <0>        -0.0925
      3 C3         -0.7174   -0.9658   -1.0194 C.2       1 <0>        -0.2084
      4 S1          0.4801   -2.2320   -0.6487 S.3       1 <0>         0.2029
      5 C4          0.8132   -1.8321    0.9483 C.2       1 <0>        -0.2140
      6 C5          0.0234   -0.7465    1.1836 C.2       1 <0>        -0.0872
      7 C6          0.0263   -0.0755    2.5036 C.2       1 <0>         0.1847
      8 C7         -0.0496   -0.7320    3.8173 C.ar      1 <0>        -0.0971
      9 C8         -0.1408   -2.0540    4.2495 C.ar      1 <0>        -0.1700
     10 C9         -0.1943   -2.3047    5.6123 C.ar      1 <0>         0.3808
     11 N1         -0.1603   -1.3108    6.4896 N.ar      1 <0>        -0.4882
     12 C10        -0.0745   -0.0483    6.1223 C.ar      1 <0>         0.1742
     13 C11        -0.0156    0.2932    4.7787 C.ar      1 <0>        -0.0287
     14 O1          0.0726    1.4617    4.1115 O.3       1 <0>        -0.0794
     15 N2          0.1025    1.2117    2.7203 N.2       1 <0>        -0.2604
     16 N3         -0.2857   -3.6190    6.0661 N.pl3     1 <0>        -0.7171
     17 C12        -0.3245   -4.7246    5.1057 C.3       1 <0>         0.1948
     18 H1          0.3049   -4.4838    4.2489 H         1 <0>         0.0886
     19 C13        -1.7643   -4.9417    4.6359 C.3       1 <0>        -0.1669
     20 C14         0.1836   -5.9808    5.7650 C.ar      1 <0>        -0.0946
     21 C15        -0.1684   -6.2670    7.0708 C.ar      1 <0>        -0.1111
     22 C16         0.2977   -7.4193    7.6756 C.ar      1 <0>        -0.1147
     23 C17         1.1154   -8.2857    6.9744 C.ar      1 <0>        -0.1162
     24 C18         1.4666   -8.0000    5.6683 C.ar      1 <0>        -0.1153
     25 C19         0.9971   -6.8498    5.0622 C.ar      1 <0>        -0.1078
     26 H2         -1.1661    1.8106    0.0426 H         1 <0>         0.0778
     27 H3         -2.5756    0.7861   -0.3205 H         1 <0>         0.0722
     28 H4         -2.0182    0.9699    1.3599 H         1 <0>         0.0630
     29 H5         -1.2488   -0.7857   -1.9422 H         1 <0>         0.1923
     30 H6          1.4966   -2.3188    1.6284 H         1 <0>         0.1887
     31 H7         -0.1695   -2.8660    3.5380 H         1 <0>         0.1425
     32 H8         -0.0498    0.7273    6.8734 H         1 <0>         0.1775
     33 H9         -0.3235   -3.8019    7.0180 H         1 <0>         0.4078
     34 H10        -2.1318   -4.0330    4.1590 H         1 <0>         0.0636
     35 H11        -1.7932   -5.7643    3.9213 H         1 <0>         0.0714
     36 H12        -2.3936   -5.1824    5.4927 H         1 <0>         0.0646
     37 H13        -0.8072   -5.5901    7.6186 H         1 <0>         0.1214
     38 H14         0.0233   -7.6426    8.6960 H         1 <0>         0.1250
     39 H15         1.4801   -9.1857    7.4472 H         1 <0>         0.1242
     40 H16         2.1058   -8.6767    5.1207 H         1 <0>         0.1255
     41 H17         1.2685   -6.6285    4.0405 H         1 <0>         0.1242
@<TRIPOS>BOND
     1    1    2 1
     2    1   26 1
     3    1   27 1
     4    1   28 1
     5    2    6 1
     6    2    3 2
     7    3    4 1
     8    3   29 1
     9    4    5 1
    10    5    6 2
    11    5   30 1
    12    6    7 1
    13    7   15 2
    14    7    8 1
    15    8   13 ar
    16    8    9 ar
    17    9   10 ar
    18    9   31 1
    19   10   11 ar
    20   10   16 1
    21   11   12 ar
    22   12   13 ar
    23   12   32 1
    24   13   14 1
    25   14   15 1
    26   16   17 1
    27   16   33 1
    28   17   18 1
    29   17   19 1
    30   17   20 1
    31   19   34 1
    32   19   35 1
    33   19   36 1
    34   20   25 ar
    35   20   21 ar
    36   21   22 ar
    37   21   37 1
    38   22   23 ar
    39   22   38 1
    40   23   24 ar
    41   23   39 1
    42   24   25 ar
    43   24   40 1
    44   25   41 1
@<TRIPOS>MOLECULE
CHEMBL493326
   47    50     0     0     0
SMALL
USER_CHARGES

@<TRIPOS>ATOM
      1 C1         -0.0495    1.2641    0.3534 C.3       1 <0>        -0.1754
      2 C2         -0.0159   -0.2368    0.0585 C.3       1 <0>         0.1162
      3 H1          0.5037   -0.7540    0.8652 H         1 <0>         0.0892
      4 C3         -1.4253   -0.7596   -0.0477 C.ar      1 <0>        -0.0844
      5 C4         -2.0300   -0.8706   -1.2858 C.ar      1 <0>        -0.0763
      6 C5         -3.3226   -1.3501   -1.3834 C.ar      1 <0>        -0.1135
      7 C6         -4.0117   -1.7189   -0.2429 C.ar      1 <0>        -0.1012
      8 C7         -3.4083   -1.6084    0.9954 C.ar      1 <0>        -0.1109
      9 C8         -2.1122   -1.1338    1.0932 C.ar      1 <0>        -0.0269
     10 Cl1        -1.3511   -1.0009    2.6478 Cl        1 <0>        -0.0673
     11 O1          0.6709   -0.4649   -1.1737 O.3       1 <0>        -0.2596
     12 C9          2.0247   -0.5528   -1.1177 C.2       1 <0>         0.2000
     13 C10         2.6985   -0.3145    0.0548 C.2       1 <0>        -0.2338
     14 C11         4.0636   -0.4134    0.0714 C.2       1 <0>         0.1157
     15 S1          4.4365   -0.8577   -1.6166 S.3       1 <0>         0.1514
     16 C12         2.7668   -0.8929   -2.2475 C.2       1 <0>        -0.2767
     17 C13         2.3150   -1.1870   -3.5536 C.2       1 <0>         0.6126
     18 O2          1.1235   -1.1605   -3.8065 O.2       1 <0>        -0.5177
     19 N1          3.2022   -1.4969   -4.5197 N.am      1 <0>        -0.8531
     20 N2          4.9393   -0.2168    1.1352 N.pl3     1 <0>        -0.4148
     21 C14         4.9600    0.8553    1.9795 C.2       1 <0>         0.2703
     22 N3          5.9080    0.7127    2.8583 N.2       1 <0>        -0.4622
     23 C15         6.5622   -0.4588    2.6415 C.ar      1 <0>         0.0178
     24 C16         5.9472   -1.0744    1.5379 C.ar      1 <0>         0.0880
     25 C17         6.4065   -2.3027    1.0863 C.ar      1 <0>        -0.1520
     26 C18         7.4674   -2.9156    1.7298 C.ar      1 <0>         0.1572
     27 C19         8.0721   -2.3056    2.8247 C.ar      1 <0>        -0.1986
     28 C20         7.6352   -1.0916    3.2738 C.ar      1 <0>        -0.0156
     29 O3          7.9207   -4.1196    1.2904 O.3       1 <0>        -0.3114
     30 C21         9.0187   -4.6974    1.9993 C.3       1 <0>         0.0249
     31 H2          0.9700    1.6422    0.4302 H         1 <0>         0.0685
     32 H3         -0.5690    1.7813   -0.4533 H         1 <0>         0.0763
     33 H4         -0.5733    1.4381    1.2933 H         1 <0>         0.0807
     34 H5         -1.4923   -0.5823   -2.1770 H         1 <0>         0.1458
     35 H6         -3.7948   -1.4363   -2.3509 H         1 <0>         0.1333
     36 H7         -5.0219   -2.0931   -0.3198 H         1 <0>         0.1349
     37 H8         -3.9467   -1.8962    1.8862 H         1 <0>         0.1370
     38 H9          2.1583   -0.0521    0.9524 H         1 <0>         0.1599
     39 H10         4.1508   -1.5180   -4.3184 H         1 <0>         0.3976
     40 H11         2.8920   -1.6989   -5.4164 H         1 <0>         0.4100
     41 H12         4.2880    1.6990    1.9254 H         1 <0>         0.2223
     42 H13         5.9385   -2.7785    0.2372 H         1 <0>         0.1349
     43 H14         8.8988   -2.7933    3.3198 H         1 <0>         0.1422
     44 H15         8.1107   -0.6275    4.1252 H         1 <0>         0.1413
     45 H16         9.8761   -4.0262    1.9508 H         1 <0>         0.0597
     46 H17         8.7374   -4.8527    3.0409 H         1 <0>         0.0594
     47 H18         9.2801   -5.6541    1.5471 H         1 <0>         0.1043
@<TRIPOS>BOND
     1    1    2 1
     2    1   31 1
     3    1   32 1
     4    1   33 1
     5    2    3 1
     6    2    4 1
     7    2   11 1
     8    4    9 ar
     9    4    5 ar
    10    5    6 ar
    11    5   34 1
    12    6    7 ar
    13    6   35 1
    14    7    8 ar
    15    7   36 1
    16    8    9 ar
    17    8   37 1
    18    9   10 1
    19   11   12 1
    20   12   16 2
    21   12   13 1
    22   13   14 2
    23   13   38 1
    24   14   15 1
    25   14   20 1
    26   15   16 1
    27   16   17 1
    28   17   18 2
    29   17   19 am
    30   19   39 1
    31   19   40 1
    32   20   24 1
    33   20   21 1
    34   21   22 2
    35   21   41 1
    36   22   23 1
    37   23   28 ar
    38   23   24 ar
    39   24   25 ar
    40   25   26 ar
    41   25   42 1
    42   26   27 ar
    43   26   29 1
    44   27   28 ar
    45   27   43 1
    46   28   44 1
    47   29   30 1
    48   30   45 1
    49   30   46 1
    50   30   47 1
@<TRIPOS>MOLECULE
CHEMBL223367
   52    54     0     0     0
SMALL
USER_CHARGES

@<TRIPOS>ATOM
      1 C1         -0.0167    1.3838    0.0097 C.ar      1 <0>        -0.1783
      2 C2          1.1728    2.0893    0.0021 C.ar      1 <0>        -0.0450
      3 C3          2.3823    1.4187    0.0010 C.ar      1 <0>        -0.0536
      4 C4          2.4074    0.0368   -0.0008 C.ar      1 <0>        -0.1009
      5 C5          1.2179   -0.6790   -0.0186 C.ar      1 <0>         0.1241
      6 C6          0.0021   -0.0041    0.0020 C.ar      1 <0>         0.0917
      7 O1         -1.1720   -0.6895    0.0186 O.3       1 <0>        -0.1708
      8 C7         -2.3638    0.0962   -0.0420 C.3       1 <0>        -0.0254
      9 C8         -3.3878   -0.4441    0.9553 C.3       1 <0>        -0.1191
     10 C9         -4.4727   -1.2155    0.2024 C.3       1 <0>        -0.1126
     11 C10        -4.0013   -2.6503   -0.0381 C.3       1 <0>        -0.1714
     12 C11        -4.5435   -3.1527   -1.3773 C.3       1 <0>         0.0698
     13 O2         -4.3276   -4.5617   -1.4717 O.3       1 <0>        -0.2903
     14 C12        -3.0551   -4.9849   -1.6613 C.ar      1 <0>         0.3659
     15 C13        -2.8207   -6.1757   -2.3696 C.ar      1 <0>         0.0873
     16 N1         -1.5739   -6.6125   -2.5395 N.ar      1 <0>        -0.3428
     17 C14        -0.5639   -5.9253   -2.0496 C.ar      1 <0>         0.0041
     18 C15        -0.7924   -4.7279   -1.3645 C.ar      1 <0>         0.3986
     19 N2         -2.0296   -4.2879   -1.1874 N.ar      1 <0>        -0.4807
     20 N3          0.3052   -4.0220   -0.8628 N.am      1 <0>        -0.6575
     21 C16         0.1350   -2.7302   -0.4750 C.2       1 <0>         0.6749
     22 O3         -0.9512   -2.1845   -0.5004 O.2       1 <0>        -0.3860
     23 N4          1.2637   -2.0850   -0.0545 N.am      1 <0>        -0.6808
     24 C17        -3.9205   -6.9185   -2.9075 C.1       1 <0>         0.2763
     25 N5         -4.7929   -7.5078   -3.3343 N.1       1 <0>        -0.3792
     26 Cl1         3.8701    2.3132    0.0012 Cl        1 <0>        -0.0620
     27 C18         1.1510    3.5961   -0.0055 C.3       1 <0>        -0.0814
     28 C19         1.3988    4.1169    1.4117 C.3       1 <0>        -0.1158
     29 C20         1.3766    5.6467    1.4040 C.3       1 <0>         0.0758
     30 O4          1.6080    6.1331    2.7276 O.3       1 <0>        -0.5750
     31 H1         -0.9587    1.9119    0.0260 H         1 <0>         0.1478
     32 H2          3.3523   -0.4861    0.0113 H         1 <0>         0.1413
     33 H3         -2.1286    1.1316    0.2046 H         1 <0>         0.0631
     34 H4         -2.7784    0.0491   -1.0490 H         1 <0>         0.0666
     35 H5         -2.8915   -1.1103    1.6610 H         1 <0>         0.0733
     36 H6         -3.8413    0.3863    1.4965 H         1 <0>         0.0651
     37 H7         -5.3876   -1.2279    0.7948 H         1 <0>         0.0608
     38 H8         -4.6656   -0.7309   -0.7547 H         1 <0>         0.0619
     39 H9         -2.9117   -2.6760   -0.0553 H         1 <0>         0.1281
     40 H10        -4.3661   -3.2913    0.7644 H         1 <0>         0.0614
     41 H11        -5.6112   -2.9428   -1.4398 H         1 <0>         0.1082
     42 H12        -4.0240   -2.6492   -2.1926 H         1 <0>         0.0685
     43 H13         0.4454   -6.2879   -2.1770 H         1 <0>         0.1877
     44 H14         1.1742   -4.4473   -0.7924 H         1 <0>         0.4261
     45 H15         2.0598   -2.5736    0.2070 H         1 <0>         0.4195
     46 H16         1.9306    3.9675   -0.6706 H         1 <0>         0.0828
     47 H17         0.1789    3.9436   -0.3554 H         1 <0>         0.0776
     48 H18         0.6191    3.7455    2.0768 H         1 <0>         0.0709
     49 H19         2.3708    3.7694    1.7616 H         1 <0>         0.0763
     50 H20         2.1562    6.0181    0.7389 H         1 <0>         0.0465
     51 H21         0.4045    5.9942    1.0540 H         1 <0>         0.0454
     52 H22         1.6075    7.0976    2.7979 H         1 <0>         0.3811
@<TRIPOS>BOND
     1    1    6 ar
     2    1    2 ar
     3    1   31 1
     4    2    3 ar
     5    2   27 1
     6    3    4 ar
     7    3   26 1
     8    4    5 ar
     9    4   32 1
    10    5   23 1
    11    5    6 ar
    12    6    7 1
    13    7    8 1
    14    8    9 1
    15    8   33 1
    16    8   34 1
    17    9   10 1
    18    9   35 1
    19    9   36 1
    20   10   11 1
    21   10   37 1
    22   10   38 1
    23   11   12 1
    24   11   39 1
    25   11   40 1
    26   12   13 1
    27   12   41 1
    28   12   42 1
    29   13   14 1
    30   14   19 ar
    31   14   15 ar
    32   15   16 ar
    33   15   24 1
    34   16   17 ar
    35   17   18 ar
    36   17   43 1
    37   18   19 ar
    38   18   20 1
    39   20   21 am
    40   20   44 1
    41   21   22 2
    42   21   23 am
    43   23   45 1
    44   24   25 3
    45   27   28 1
    46   27   46 1
    47   27   47 1
    48   28   29 1
    49   28   48 1
    50   28   49 1
    51   29   30 1
    52   29   50 1
    53   29   51 1
    54   30   52 1
@<TRIPOS>MOLECULE
CHEMBL1096095
   51    55     0     0     0
SMALL
USER_CHARGES

@<TRIPOS>ATOM
      1 C1         -0.8689    1.6022   -0.1809 C.3       1 <0>         0.0868
      2 N1         -0.1181    0.3755    0.0979 N.pl3     1 <0>        -0.2377
      3 C2          0.5598   -0.3432   -0.8174 C.2       1 <0>         0.0318
      4 C3          1.1411   -1.4003   -0.1495 C.2       1 <0>        -0.1031
      5 C4          0.7473   -1.2665    1.1821 C.2       1 <0>        -0.0151
      6 N2         -0.0019   -0.1766    1.2591 N.2       1 <0>        -0.2474
      7 C5          1.1035   -2.1675    2.2975 C.2       1 <0>         0.6126
      8 O1          1.8069   -3.1380    2.0942 O.2       1 <0>        -0.5293
      9 N3          0.6485   -1.9136    3.5405 N.am      1 <0>        -0.8411
     10 C6          2.0149   -2.4075   -0.8383 C.3       1 <0>        -0.0501
     11 C7          1.5544   -2.5877   -2.2850 C.3       1 <0>        -0.0637
     12 C8          1.2834   -1.2798   -2.9696 C.ar      1 <0>        -0.2168
     13 C9          0.7721   -0.1796   -2.2657 C.ar      1 <0>         0.2917
     14 N4          0.5075    0.9489   -2.9063 N.ar      1 <0>        -0.5558
     15 C10         0.7465    1.0467   -4.2076 C.ar      1 <0>         0.5661
     16 N5          1.2517    0.0346   -4.8982 N.ar      1 <0>        -0.5548
     17 C11         1.5264   -1.1259   -4.3215 C.ar      1 <0>         0.1982
     18 N6          0.4616    2.2349   -4.8598 N.pl3     1 <0>        -0.6279
     19 C12         0.8504    2.4122   -6.1934 C.ar      1 <0>         0.1377
     20 C13         0.8263    1.3400   -7.0734 C.ar      1 <0>        -0.0825
     21 C14         1.2105    1.5175   -8.3891 C.ar      1 <0>        -0.1314
     22 C15         1.6195    2.7621   -8.8317 C.ar      1 <0>        -0.0969
     23 C16         1.6462    3.8354   -7.9607 C.ar      1 <0>        -0.1752
     24 C17         1.2572    3.6673   -6.6415 C.ar      1 <0>         0.0949
     25 O2          1.2771    4.7233   -5.7852 O.3       1 <0>        -0.2611
     26 C18         1.5406    5.9543   -6.2964 C.ar      1 <0>         0.0844
     27 C19         0.5572    6.6430   -6.9921 C.ar      1 <0>        -0.1321
     28 C20         0.8275    7.8946   -7.5104 C.ar      1 <0>        -0.1049
     29 C21         2.0770    8.4609   -7.3369 C.ar      1 <0>        -0.1174
     30 C22         3.0589    7.7766   -6.6445 C.ar      1 <0>        -0.1047
     31 C23         2.7918    6.5274   -6.1188 C.ar      1 <0>        -0.1217
     32 H1         -0.2111    2.4641   -0.0690 H         1 <0>         0.0921
     33 H2         -1.2538    1.5689   -1.2001 H         1 <0>         0.1040
     34 H3         -1.7003    1.6863    0.5189 H         1 <0>         0.0990
     35 H4          0.0873   -1.1393    3.7028 H         1 <0>         0.4079
     36 H5          0.8823   -2.5051    4.2728 H         1 <0>         0.4082
     37 H6          3.0476   -2.0592   -0.8274 H         1 <0>         0.0829
     38 H7          1.9495   -3.3618   -0.3156 H         1 <0>         0.1028
     39 H8          2.3281   -3.1210   -2.8374 H         1 <0>         0.0893
     40 H9          0.6429   -3.1853   -2.2930 H         1 <0>         0.0816
     41 H10         1.9356   -1.9409   -4.9000 H         1 <0>         0.1780
     42 H11        -0.0072    2.9441   -4.3929 H         1 <0>         0.4255
     43 H12         0.5077    0.3667   -6.7304 H         1 <0>         0.1549
     44 H13         1.1917    0.6820   -9.0732 H         1 <0>         0.1295
     45 H14         1.9192    2.8960   -9.8606 H         1 <0>         0.1272
     46 H15         1.9662    4.8061   -8.3097 H         1 <0>         0.1309
     47 H16        -0.4187    6.2008   -7.1285 H         1 <0>         0.1298
     48 H17         0.0625    8.4311   -8.0519 H         1 <0>         0.1310
     49 H18         2.2864    9.4394   -7.7433 H         1 <0>         0.1293
     50 H19         4.0342    8.2209   -6.5111 H         1 <0>         0.1319
     51 H20         3.5576    5.9953   -5.5740 H         1 <0>         0.1308
@<TRIPOS>BOND
     1    1    2 1
     2    1   32 1
     3    1   33 1
     4    1   34 1
     5    2    6 1
     6    2    3 1
     7    3   13 1
     8    3    4 2
     9    4    5 1
    10    4   10 1
    11    5    6 2
    12    5    7 1
    13    7    8 2
    14    7    9 am
    15    9   35 1
    16    9   36 1
    17   10   11 1
    18   10   37 1
    19   10   38 1
    20   11   12 1
    21   11   39 1
    22   11   40 1
    23   12   17 ar
    24   12   13 ar
    25   13   14 ar
    26   14   15 ar
    27   15   16 ar
    28   15   18 1
    29   16   17 ar
    30   17   41 1
    31   18   19 1
    32   18   42 1
    33   19   24 ar
    34   19   20 ar
    35   20   21 ar
    36   20   43 1
    37   21   22 ar
    38   21   44 1
    39   22   23 ar
    40   22   45 1
    41   23   24 ar
    42   23   46 1
    43   24   25 1
    44   25   26 1
    45   26   31 ar
    46   26   27 ar
    47   27   28 ar
    48   27   47 1
    49   28   29 ar
    50   28   48 1
    51   29   30 ar
    52   29   49 1
    53   30   31 ar
    54   30   50 1
    55   31   51 1
@<TRIPOS>MOLECULE
CHEMBL1222044
   25    26     0     0     0
SMALL
USER_CHARGES

@<TRIPOS>ATOM
      1 C1         -0.0172    1.4136    0.0098 C.ar      1 <0>         0.0613
      2 C2          1.1582    2.1271    0.0024 C.ar      1 <0>        -0.1142
      3 C3          2.3983    1.4866   -0.0133 C.ar      1 <0>        -0.0040
      4 C4          2.4503    0.1177   -0.0211 C.ar      1 <0>         0.0240
      5 C5          1.2840   -0.6103   -0.0134 C.ar      1 <0>        -0.0968
      6 C6          0.0021   -0.0041    0.0020 C.ar      1 <0>         0.0645
      7 N1         -1.0388   -0.8446    0.0070 N.pl3     1 <0>        -0.1076
      8 O1         -2.3474   -0.3038    0.0223 O.3       1 <0>        -0.4561
      9 C7         -0.8973   -2.1526   -0.0022 C.2       1 <0>         0.0203
     10 S1          0.8804   -2.3408   -0.0186 S.3       1 <0>         0.2751
     11 C8         -1.9381   -3.1959    0.0015 C.2       1 <0>         0.6056
     12 O2         -3.1130   -2.8825    0.0147 O.2       1 <0>        -0.4541
     13 N2         -1.5878   -4.4973   -0.0096 N.am      1 <0>        -0.8300
     14 N3          3.7581   -0.5756   -0.0382 N.pl3     1 <0>         0.0306
     15 O3          4.7825    0.0664   -0.0453 O.2       1 <0>        -0.1187
     16 O4          3.8018   -1.7837   -0.0451 O.3       1 <0>        -0.1364
     17 S2          1.0976    3.8880    0.0124 S.3       1 <0>         0.0460
     18 C9          2.8415    4.3872   -0.0016 C.3       1 <0>         0.4441
     19 F1          3.4604    3.8876   -1.1525 F         1 <0>        -0.1574
     20 F2          2.9270    5.7836    0.0051 F         1 <0>        -0.1321
     21 F3          3.4822    3.8754    1.1320 F         1 <0>        -0.1575
     22 H1         -0.9618    1.9368    0.0262 H         1 <0>         0.1848
     23 H2          3.3098    2.0658   -0.0196 H         1 <0>         0.1774
     24 H3         -0.6506   -4.7472   -0.0201 H         1 <0>         0.4046
     25 H4         -2.2729   -5.1840   -0.0071 H         1 <0>         0.4266
@<TRIPOS>BOND
     1    1    6 ar
     2    1    2 ar
     3    1   22 1
     4    2    3 ar
     5    2   17 1
     6    3    4 ar
     7    3   23 1
     8    4    5 ar
     9    4   14 1
    10    5   10 1
    11    5    6 ar
    12    6    7 1
    13    7    8 1
    14    7    9 2
    15    9   10 1
    16    9   11 1
    17   11   12 2
    18   11   13 am
    19   13   24 1
    20   13   25 1
    21   14   15 2
    22   14   16 1
    23   17   18 1
    24   18   19 1
    25   18   20 1
    26   18   21 1
@<TRIPOS>MOLECULE
CHEMBL557878
   40    42     0     0     0
SMALL
USER_CHARGES

@<TRIPOS>ATOM
      1 C1         -0.0178    1.4608    0.0101 C.3       1 <0>         0.0638
      2 N1          0.0021   -0.0041    0.0020 N.pl3     1 <0>        -0.4555
      3 C2          0.0085   -0.8005   -1.0881 C.2       1 <0>         0.2174
      4 N2          0.0278   -2.0494   -0.7043 N.2       1 <0>        -0.4889
      5 C3          0.0345   -2.1086    0.6308 C.2       1 <0>         0.0463
      6 C4          0.0238   -0.8294    1.1062 C.2       1 <0>         0.0161
      7 C5          0.0308   -0.4135    2.5173 C.2       1 <0>         0.0001
      8 C6          0.1520   -1.1979    3.6545 C.2       1 <0>        -0.2378
      9 C7          0.1331   -0.5868    4.8810 C.2       1 <0>         0.1993
     10 C8         -0.0076    0.7994    4.9303 C.2       1 <0>        -0.2949
     11 S1         -0.1067    1.2296    3.2007 S.3       1 <0>         0.1150
     12 C9         -0.0543    1.6480    6.0609 C.2       1 <0>         0.6133
     13 O1          0.0342    1.1763    7.1806 O.2       1 <0>        -0.5237
     14 N3         -0.1968    2.9784    5.8995 N.am      1 <0>        -0.8548
     15 O2          0.2482   -1.3145    6.0218 O.3       1 <0>        -0.2658
     16 C10         0.3885   -2.7292    5.8775 C.3       1 <0>         0.0761
     17 C11         0.5019   -3.3643    7.2394 C.ar      1 <0>        -0.0439
     18 C12         0.4554   -2.5773    8.3752 C.ar      1 <0>        -0.0949
     19 C13         0.5595   -3.1598    9.6242 C.ar      1 <0>        -0.0837
     20 C14         0.7095   -4.5295    9.7379 C.ar      1 <0>        -0.1172
     21 C15         0.7550   -5.3163    8.6026 C.ar      1 <0>        -0.0715
     22 C16         0.6467   -4.7341    7.3532 C.ar      1 <0>        -0.1790
     23 C17         0.6910   -5.5926    6.1155 C.3       1 <0>         0.5062
     24 F1          0.8419   -6.9339    6.4834 F         1 <0>        -0.1724
     25 F2         -0.4994   -5.4371    5.3972 F         1 <0>        -0.1756
     26 F3          1.7718   -5.2037    5.3167 F         1 <0>        -0.1757
     27 H1          1.0048    1.8381    0.0023 H         1 <0>         0.0886
     28 H2         -0.5450    1.8219   -0.8730 H         1 <0>         0.1020
     29 H3         -0.5280    1.8123    0.9069 H         1 <0>         0.0835
     30 H4         -0.0013   -0.4600   -2.1129 H         1 <0>         0.2170
     31 H5          0.0493   -3.0087    1.2274 H         1 <0>         0.1804
     32 H6          0.2590   -2.2697    3.5752 H         1 <0>         0.1552
     33 H7         -0.2672    3.3540    5.0080 H         1 <0>         0.3964
     34 H8         -0.2288    3.5604    6.6749 H         1 <0>         0.4085
     35 H9         -0.4838   -3.1300    5.3612 H         1 <0>         0.0904
     36 H10         1.2857   -2.9482    5.2986 H         1 <0>         0.0903
     37 H11         0.3382   -1.5074    8.2863 H         1 <0>         0.1531
     38 H12         0.5239   -2.5450   10.5114 H         1 <0>         0.1367
     39 H13         0.7915   -4.9846   10.7140 H         1 <0>         0.1377
     40 H14         0.8726   -6.3862    8.6914 H         1 <0>         0.1421
@<TRIPOS>BOND
     1    1    2 1
     2    1   27 1
     3    1   28 1
     4    1   29 1
     5    2    6 1
     6    2    3 1
     7    3    4 2
     8    3   30 1
     9    4    5 1
    10    5    6 2
    11    5   31 1
    12    6    7 1
    13    7   11 1
    14    7    8 2
    15    8    9 1
    16    8   32 1
    17    9   10 2
    18    9   15 1
    19   10   11 1
    20   10   12 1
    21   12   13 2
    22   12   14 am
    23   14   33 1
    24   14   34 1
    25   15   16 1
    26   16   17 1
    27   16   35 1
    28   16   36 1
    29   17   22 ar
    30   17   18 ar
    31   18   19 ar
    32   18   37 1
    33   19   20 ar
    34   19   38 1
    35   20   21 ar
    36   20   39 1
    37   21   22 ar
    38   21   40 1
    39   22   23 1
    40   23   24 1
    41   23   25 1
    42   23   26 1
@<TRIPOS>MOLECULE
CHEMBL557878__1
   41    43     0     0     0
SMALL
USER_CHARGES

@<TRIPOS>ATOM
      1 C1         -0.0178    1.4608    0.0101 C.3       1 <0>         0.0491
      2 N1          0.0021   -0.0041    0.0020 N.pl3     1 <0>        -0.4083
      3 C2          0.0085   -0.8005   -1.0881 C.cat     1 <0>         0.3042
      4 N2          0.0278   -2.0494   -0.7043 N.pl3     1 <0>        -0.4686
      5 C3          0.0345   -2.1086    0.6308 C.2       1 <0>         0.0372
      6 C4          0.0238   -0.8294    1.1062 C.2       1 <0>         0.1339
      7 C5          0.0308   -0.4135    2.5173 C.2       1 <0>        -0.1055
      8 C6          0.1520   -1.1979    3.6545 C.2       1 <0>        -0.1705
      9 C7          0.1331   -0.5868    4.8810 C.2       1 <0>         0.1748
     10 C8         -0.0076    0.7994    4.9303 C.2       1 <0>        -0.2418
     11 S1         -0.1067    1.2296    3.2007 S.3       1 <0>         0.1728
     12 C9         -0.0543    1.6480    6.0609 C.2       1 <0>         0.6029
     13 O1          0.0342    1.1763    7.1806 O.2       1 <0>        -0.5027
     14 N3         -0.1968    2.9784    5.8995 N.am      1 <0>        -0.8485
     15 O2          0.2482   -1.3145    6.0218 O.3       1 <0>        -0.2594
     16 C10         0.3885   -2.7292    5.8775 C.3       1 <0>         0.0786
     17 C11         0.5019   -3.3643    7.2394 C.ar      1 <0>        -0.0526
     18 C12         0.4554   -2.5773    8.3752 C.ar      1 <0>        -0.0946
     19 C13         0.5595   -3.1598    9.6242 C.ar      1 <0>        -0.0808
     20 C14         0.7095   -4.5295    9.7379 C.ar      1 <0>        -0.1113
     21 C15         0.7550   -5.3163    8.6026 C.ar      1 <0>        -0.0692
     22 C16         0.6467   -4.7341    7.3532 C.ar      1 <0>        -0.1796
     23 C17         0.6910   -5.5926    6.1155 C.3       1 <0>         0.5072
     24 F1          0.8419   -6.9339    6.4834 F         1 <0>        -0.1686
     25 F2         -0.4994   -5.4371    5.3972 F         1 <0>        -0.1787
     26 F3          1.7718   -5.2037    5.3167 F         1 <0>        -0.1788
     27 H1          1.0048    1.8381    0.0023 H         1 <0>         0.1206
     28 H2         -0.5450    1.8219   -0.8730 H         1 <0>         0.1293
     29 H3         -0.5280    1.8123    0.9069 H         1 <0>         0.1079
     30 H4         -0.0013   -0.4600   -2.1129 H         1 <0>         0.2693
     31 H5          0.0493   -3.0087    1.2274 H         1 <0>         0.2294
     32 H6          0.2590   -2.2697    3.5752 H         1 <0>         0.1616
     33 H7         -0.2672    3.3540    5.0080 H         1 <0>         0.3966
     34 H8         -0.2288    3.5604    6.6749 H         1 <0>         0.4160
     35 H9         -0.4838   -3.1300    5.3612 H         1 <0>         0.0900
     36 H10         1.2857   -2.9482    5.2986 H         1 <0>         0.0900
     37 H11         0.3382   -1.5074    8.2863 H         1 <0>         0.1521
     38 H12         0.5239   -2.5450   10.5114 H         1 <0>         0.1395
     39 H13         0.7915   -4.9846   10.7140 H         1 <0>         0.1412
     40 H14         0.8726   -6.3862    8.6914 H         1 <0>         0.1444
     41 H15         0.0357   -2.8165   -1.2979 H         1 <0>         0.4706
@<TRIPOS>BOND
     1    1    2 1
     2    1   27 1
     3    1   28 1
     4    1   29 1
     5    2    6 1
     6    2    3 1
     7    3    4 2
     8    3   30 1
     9    4    5 1
    10    4   41 1
    11    5    6 2
    12    5   31 1
    13    6    7 1
    14    7   11 1
    15    7    8 2
    16    8    9 1
    17    8   32 1
    18    9   10 2
    19    9   15 1
    20   10   11 1
    21   10   12 1
    22   12   13 2
    23   12   14 am
    24   14   33 1
    25   14   34 1
    26   15   16 1
    27   16   17 1
    28   16   35 1
    29   16   36 1
    30   17   22 ar
    31   17   18 ar
    32   18   19 ar
    33   18   37 1
    34   19   20 ar
    35   19   38 1
    36   20   21 ar
    37   20   39 1
    38   21   22 ar
    39   21   40 1
    40   22   23 1
    41   23   24 1
    42   23   25 1
    43   23   26 1
@<TRIPOS>MOLECULE
CHEMBL524266
   34    36     0     0     0
SMALL
USER_CHARGES

@<TRIPOS>ATOM
      1 C1         -0.0169    1.3959    0.0097 C.ar      1 <0>        -0.3004
      2 C2          1.1895    2.0705    0.0018 C.ar      1 <0>         0.2057
      3 N1          2.3189    1.3790   -0.0127 N.ar      1 <0>        -0.5780
      4 C3          2.3087    0.0536   -0.0197 C.ar      1 <0>         0.5800
      5 N2          1.1777   -0.6333   -0.0130 N.ar      1 <0>        -0.5626
      6 C4          0.0021   -0.0041    0.0020 C.ar      1 <0>         0.3010
      7 C5         -1.2594   -0.7714    0.0104 C.2       1 <0>         0.0098
      8 C6         -1.3648   -2.1320    0.0101 C.2       1 <0>        -0.0391
      9 C7         -2.7321   -2.4306    0.0198 C.2       1 <0>        -0.2364
     10 C8         -3.4234   -1.2224    0.0240 C.2       1 <0>         0.0913
     11 N3         -2.5295   -0.2337    0.0259 N.pl3     1 <0>        -0.5038
     12 H1         -2.7388    0.7135    0.0340 H         1 <0>         0.4201
     13 C9         -4.9304   -1.1898    0.0294 C.3       1 <0>        -0.0335
     14 H2         -5.2917   -1.1695    1.0576 H         1 <0>         0.1085
     15 C10        -5.4530   -2.4435   -0.6727 C.3       1 <0>         0.1237
     16 N4         -4.7857   -3.6605   -0.2316 N.am      1 <0>        -0.7355
     17 C11        -3.4577   -3.7131    0.0273 C.2       1 <0>         0.5985
     18 O1         -2.8923   -4.7657    0.2543 O.2       1 <0>        -0.5280
     19 C12        -5.4189    0.0571   -0.7105 C.3       1 <0>        -0.1522
     20 C13        -6.9416    0.1537   -0.5967 C.3       1 <0>         0.0602
     21 F1         -7.3883    1.2939   -1.2733 F         1 <0>        -0.2138
     22 N5          3.5123   -0.6297   -0.0349 N.pl3     1 <0>        -0.8179
     23 H3         -0.9521    1.9360    0.0260 H         1 <0>         0.1360
     24 H4          1.2108    3.1502    0.0071 H         1 <0>         0.1710
     25 H5         -0.5504   -2.8414    0.0031 H         1 <0>         0.1599
     26 H6         -6.5208   -2.5372   -0.4753 H         1 <0>         0.0951
     27 H7         -5.3053   -2.3318   -1.7469 H         1 <0>         0.0715
     28 H8         -5.3141   -4.4661   -0.1183 H         1 <0>         0.4052
     29 H9         -4.9645    0.9435   -0.2681 H         1 <0>         0.0802
     30 H10        -5.1366   -0.0100   -1.7612 H         1 <0>         0.0887
     31 H11        -7.3960   -0.7327   -1.0392 H         1 <0>         0.0812
     32 H12        -7.2239    0.2208    0.4539 H         1 <0>         0.0802
     33 H13         4.3488   -0.1386   -0.0402 H         1 <0>         0.4168
     34 H14         3.5193   -1.5997   -0.0401 H         1 <0>         0.4166
@<TRIPOS>BOND
     1    1    6 ar
     2    1    2 ar
     3    1   23 1
     4    2    3 ar
     5    2   24 1
     6    3    4 ar
     7    4    5 ar
     8    4   22 1
     9    5    6 ar
    10    6    7 1
    11    7   11 1
    12    7    8 2
    13    8    9 1
    14    8   25 1
    15    9   17 1
    16    9   10 2
    17   10   11 1
    18   10   13 1
    19   11   12 1
    20   13   14 1
    21   13   15 1
    22   13   19 1
    23   15   16 1
    24   15   26 1
    25   15   27 1
    26   16   17 am
    27   16   28 1
    28   17   18 2
    29   19   20 1
    30   19   29 1
    31   19   30 1
    32   20   21 1
    33   20   31 1
    34   20   32 1
    35   22   33 1
    36   22   34 1
@<TRIPOS>MOLECULE
CHEMBL1208958
   70    75     0     0     0
SMALL
USER_CHARGES

@<TRIPOS>ATOM
      1 C1         -0.2278    1.5061   -0.1024 C.3       1 <0>        -0.1752
      2 C2          0.0027   -0.0029    0.0018 C.3       1 <0>         0.1179
      3 H1         -0.9568   -0.5111    0.0979 H         1 <0>         0.0889
      4 C3          0.8513   -0.2991    1.2114 C.ar      1 <0>        -0.0876
      5 C4          2.2215   -0.4268    1.0801 C.ar      1 <0>        -0.0769
      6 C5          3.0001   -0.6984    2.1893 C.ar      1 <0>        -0.1126
      7 C6          2.4090   -0.8426    3.4309 C.ar      1 <0>        -0.0990
      8 C7          1.0394   -0.7151    3.5635 C.ar      1 <0>        -0.1096
      9 C8          0.2601   -0.4375    2.4543 C.ar      1 <0>        -0.0265
     10 Cl1        -1.4598   -0.2708    2.6211 Cl        1 <0>        -0.0680
     11 O1          0.6709   -0.4649   -1.1737 O.3       1 <0>        -0.2577
     12 C9         -0.1062   -0.7744   -2.2432 C.2       1 <0>         0.1988
     13 C10        -1.4598   -0.5443   -2.2209 C.2       1 <0>        -0.2250
     14 C11        -2.2098   -0.8698   -3.3187 C.2       1 <0>         0.1028
     15 S1         -0.9851   -1.5266   -4.4387 S.3       1 <0>         0.1489
     16 C12         0.4497   -1.3286   -3.3950 C.2       1 <0>        -0.2699
     17 C13         1.7985   -1.6515   -3.6656 C.2       1 <0>         0.6102
     18 O2          2.6548   -1.4461   -2.8237 O.2       1 <0>        -0.5122
     19 N1          2.1377   -2.1868   -4.8551 N.am      1 <0>        -0.8528
     20 N2         -3.5805   -0.7255   -3.5123 N.pl3     1 <0>        -0.4112
     21 C14        -4.5650   -1.1324   -2.6606 C.2       1 <0>         0.2879
     22 N3         -5.7321   -0.8400   -3.1546 N.2       1 <0>        -0.4676
     23 C15        -5.5796   -0.2254   -4.3567 C.ar      1 <0>         0.0563
     24 C16        -4.1975   -0.1374   -4.6013 C.ar      1 <0>         0.0582
     25 C17        -3.7322    0.4565   -5.7669 C.ar      1 <0>        -0.1004
     26 C18        -4.6156    0.9611   -6.6791 C.ar      1 <0>        -0.0779
     27 C19        -5.9926    0.8848   -6.4497 C.ar      1 <0>        -0.0688
     28 C20        -6.4770    0.2867   -5.2941 C.ar      1 <0>        -0.0293
     29 C21        -6.9399    1.4369   -7.4490 C.ar      1 <0>         0.0570
     30 C22        -8.3225    1.3768   -7.2377 C.ar      1 <0>        -0.2053
     31 C23        -9.1709    1.9008   -8.1884 C.ar      1 <0>         0.1573
     32 N4         -8.6983    2.4555   -9.2895 N.ar      1 <0>        -0.5380
     33 C24        -7.3984    2.5343   -9.5312 C.ar      1 <0>         0.3961
     34 C25        -6.4761    2.0346   -8.6206 C.ar      1 <0>        -0.2269
     35 N5         -6.9522    3.1284  -10.7064 N.pl3     1 <0>        -0.6292
     36 C26        -7.8785    3.8635  -11.5814 C.3       1 <0>         0.1065
     37 C27        -7.2688    5.2346  -11.8915 C.3       1 <0>        -0.0230
     38 N6         -5.9221    5.0557  -12.4485 N.4       1 <0>        -0.3847
     39 C28        -5.0410    4.4501  -11.4421 C.3       1 <0>        -0.0225
     40 C29        -5.5392    3.0449  -11.1069 C.3       1 <0>         0.1008
     41 C30        -5.3816    6.3622  -12.8474 C.3       1 <0>        -0.0470
     42 H2          0.7316    2.0144   -0.1984 H         1 <0>         0.0768
     43 H3         -0.8416    1.7203   -0.9772 H         1 <0>         0.0660
     44 H4         -0.7375    1.8586    0.7943 H         1 <0>         0.0818
     45 H5          2.6837   -0.3146    0.1104 H         1 <0>         0.1449
     46 H6          4.0705   -0.7985    2.0862 H         1 <0>         0.1342
     47 H7          3.0178   -1.0552    4.2973 H         1 <0>         0.1363
     48 H8          0.5778   -0.8281    4.5333 H         1 <0>         0.1383
     49 H9         -1.9268   -0.1124   -1.3481 H         1 <0>         0.1610
     50 H10         1.4559   -2.3503   -5.5254 H         1 <0>         0.3965
     51 H11         3.0636   -2.4084   -5.0409 H         1 <0>         0.4114
     52 H12        -4.3995   -1.6261   -1.7143 H         1 <0>         0.2260
     53 H13        -2.6702    0.5200   -5.9527 H         1 <0>         0.1314
     54 H14        -4.2475    1.4226   -7.5835 H         1 <0>         0.1340
     55 H15        -7.5408    0.2292   -5.1164 H         1 <0>         0.1436
     56 H16        -8.7192    0.9249   -6.3406 H         1 <0>         0.1433
     57 H17       -10.2385    1.8569   -8.0309 H         1 <0>         0.1662
     58 H18        -5.4167    2.1042   -8.8186 H         1 <0>         0.1347
     59 H19        -8.0241    3.3093  -12.5086 H         1 <0>         0.0868
     60 H20        -8.8349    3.9939  -11.0751 H         1 <0>         0.1366
     61 H21        -7.8954    5.7556  -12.6154 H         1 <0>         0.1421
     62 H22        -7.2080    5.8211  -10.9747 H         1 <0>         0.1314
     63 H23        -4.0258    4.3930  -11.8349 H         1 <0>         0.1436
     64 H24        -5.0476    5.0603  -10.5389 H         1 <0>         0.1330
     65 H25        -4.9497    2.6344  -10.2871 H         1 <0>         0.1270
     66 H26        -5.4446    2.4066  -11.9854 H         1 <0>         0.0927
     67 H27        -5.3314    7.0158  -11.9765 H         1 <0>         0.1214
     68 H28        -4.3818    6.2308  -13.2611 H         1 <0>         0.1251
     69 H29        -6.0305    6.8093  -13.6004 H         1 <0>         0.1256
     70 H30        -5.9710    4.4538  -13.2568 H         1 <0>         0.4253
@<TRIPOS>BOND
     1    1    2 1
     2    1   42 1
     3    1   43 1
     4    1   44 1
     5    2    3 1
     6    2    4 1
     7    2   11 1
     8    4    9 ar
     9    4    5 ar
    10    5    6 ar
    11    5   45 1
    12    6    7 ar
    13    6   46 1
    14    7    8 ar
    15    7   47 1
    16    8    9 ar
    17    8   48 1
    18    9   10 1
    19   11   12 1
    20   12   16 2
    21   12   13 1
    22   13   14 2
    23   13   49 1
    24   14   15 1
    25   14   20 1
    26   15   16 1
    27   16   17 1
    28   17   18 2
    29   17   19 am
    30   19   50 1
    31   19   51 1
    32   20   24 1
    33   20   21 1
    34   21   22 2
    35   21   52 1
    36   22   23 1
    37   23   28 ar
    38   23   24 ar
    39   24   25 ar
    40   25   26 ar
    41   25   53 1
    42   26   27 ar
    43   26   54 1
    44   27   28 ar
    45   27   29 1
    46   28   55 1
    47   29   34 ar
    48   29   30 ar
    49   30   31 ar
    50   30   56 1
    51   31   32 ar
    52   31   57 1
    53   32   33 ar
    54   33   34 ar
    55   33   35 1
    56   34   58 1
    57   35   40 1
    58   35   36 1
    59   36   37 1
    60   36   59 1
    61   36   60 1
    62   37   38 1
    63   37   61 1
    64   37   62 1
    65   38   39 1
    66   38   41 1
    67   38   70 1
    68   39   40 1
    69   39   63 1
    70   39   64 1
    71   40   65 1
    72   40   66 1
    73   41   67 1
    74   41   68 1
    75   41   69 1
@<TRIPOS>MOLECULE
CHEMBL1208958__1
   70    75     0     0     0
SMALL
USER_CHARGES

@<TRIPOS>ATOM
      1 C1          0.1575    1.6875   -0.2081 C.3       1 <0>        -0.1757
      2 C2         -0.0495    0.1780   -0.0683 C.3       1 <0>         0.1185
      3 H1          0.3527   -0.3268   -0.9467 H         1 <0>         0.0885
      4 C3         -1.5222   -0.1182    0.0509 C.ar      1 <0>        -0.0886
      5 C4         -2.1019   -0.2509    1.2988 C.ar      1 <0>        -0.0767
      6 C5         -3.4527   -0.5226    1.4083 C.ar      1 <0>        -0.1120
      7 C6         -4.2250   -0.6617    0.2699 C.ar      1 <0>        -0.0983
      8 C7         -3.6466   -0.5293   -0.9781 C.ar      1 <0>        -0.1094
      9 C8         -2.2955   -0.2517   -1.0883 C.ar      1 <0>        -0.0263
     10 Cl1        -1.5695   -0.0786   -2.6557 Cl        1 <0>        -0.0690
     11 O1          0.6265   -0.2892    1.1008 O.3       1 <0>        -0.2569
     12 C9          1.9429   -0.5953    0.9707 C.2       1 <0>         0.1955
     13 C10         2.6098   -0.3538   -0.2051 C.2       1 <0>        -0.2162
     14 C11         3.9369   -0.6763   -0.2975 C.2       1 <0>         0.0871
     15 S1          4.2822   -1.3467    1.3202 S.3       1 <0>         0.1565
     16 C12         2.6546   -1.1576    2.0291 C.2       1 <0>        -0.2627
     17 C13         2.2043   -1.4926    3.3259 C.2       1 <0>         0.6087
     18 O2          1.0441   -1.2919    3.6387 O.2       1 <0>        -0.5094
     19 N1          3.0583   -2.0342    4.2169 N.am      1 <0>        -0.8518
     20 N2          4.7987   -0.5211   -1.3794 N.pl3     1 <0>        -0.4066
     21 C14         4.5646   -0.9172   -2.6633 C.2       1 <0>         0.2959
     22 N3          5.5818   -0.6165   -3.4161 N.2       1 <0>        -0.4665
     23 C15         6.5395   -0.0068   -2.6695 C.ar      1 <0>         0.0502
     24 C16         6.0492    0.0689   -1.3536 C.ar      1 <0>         0.0763
     25 C17         6.8167    0.6554   -0.3563 C.ar      1 <0>        -0.0972
     26 C18         8.0501    1.1647   -0.6506 C.ar      1 <0>        -0.0669
     27 C19         8.5509    1.1006   -1.9542 C.ar      1 <0>        -0.1037
     28 C20         7.8016    0.5100   -2.9631 C.ar      1 <0>        -0.0053
     29 C21         9.8917    1.6577   -2.2590 C.ar      1 <0>         0.1358
     30 C22        10.4109    1.6098   -3.5582 C.ar      1 <0>        -0.1775
     31 C23        11.6597    2.1380   -3.8027 C.ar      1 <0>         0.1560
     32 N4         12.3680    2.6854   -2.8321 N.ar      1 <0>        -0.5168
     33 C24        11.9169    2.7526   -1.5886 C.ar      1 <0>         0.4542
     34 C25        10.6652    2.2479   -1.2599 C.ar      1 <0>        -0.2131
     35 N5         12.7024    3.3394   -0.6028 N.pl3     1 <0>        -0.5904
     36 C26        13.9654    4.0112   -0.9444 C.3       1 <0>         0.1028
     37 C27        13.9587    5.4089   -0.3161 C.3       1 <0>         0.0371
     38 N6         13.6855    5.2942    1.1227 N.3       1 <0>        -0.5418
     39 C28        12.3516    4.7302    1.3685 C.3       1 <0>         0.0331
     40 C29        12.2894    3.3100    0.8085 C.3       1 <0>         0.1149
     41 C30        13.8399    6.5922    1.7929 C.3       1 <0>         0.0218
     42 H2          1.2227    1.9017   -0.2944 H         1 <0>         0.0655
     43 H3         -0.3581    2.0439   -1.0999 H         1 <0>         0.0822
     44 H4         -0.2447    2.1923    0.6703 H         1 <0>         0.0777
     45 H5         -1.4991   -0.1427    2.1884 H         1 <0>         0.1450
     46 H6         -3.9051   -0.6265    2.3835 H         1 <0>         0.1346
     47 H7         -5.2803   -0.8743    0.3561 H         1 <0>         0.1367
     48 H8         -4.2499   -0.6383   -1.8673 H         1 <0>         0.1385
     49 H9          2.0937    0.0846   -1.0464 H         1 <0>         0.1617
     50 H10         3.9821   -2.1941    3.9678 H         1 <0>         0.3965
     51 H11         2.7492   -2.2642    5.1071 H         1 <0>         0.4126
     52 H12         3.6660   -1.4094   -3.0049 H         1 <0>         0.2294
     53 H13         6.4382    0.7095    0.6537 H         1 <0>         0.1387
     54 H14         8.6421    1.6203    0.1294 H         1 <0>         0.1412
     55 H15         8.1881    0.4620   -3.9705 H         1 <0>         0.1480
     56 H16         9.8397    1.1639   -4.3590 H         1 <0>         0.1804
     57 H17        12.0654    2.1035   -4.8030 H         1 <0>         0.2081
     58 H18        10.2985    2.3080   -0.2459 H         1 <0>         0.1776
     59 H19        14.8039    3.4368   -0.5506 H         1 <0>         0.1076
     60 H20        14.0532    4.0971   -2.0275 H         1 <0>         0.0820
     61 H21        14.9305    5.8795   -0.4655 H         1 <0>         0.1052
     62 H22        13.1844    6.0153   -0.7862 H         1 <0>         0.0468
     63 H23        12.1579    4.7085    2.4409 H         1 <0>         0.1066
     64 H24        11.5997    5.3460    0.8750 H         1 <0>         0.0474
     65 H25        11.2697    2.9324    0.8838 H         1 <0>         0.1027
     66 H26        12.9637    2.6669    1.3740 H         1 <0>         0.1040
     67 H27        13.1422    7.3096    1.3608 H         1 <0>         0.0331
     68 H28        13.6320    6.4788    2.8569 H         1 <0>         0.0794
     69 H29        14.8602    6.9515    1.6585 H         1 <0>         0.0787
     70 H30        13.2441    3.0485   -3.0356 H         1 <0>         0.4375
@<TRIPOS>BOND
     1    1    2 1
     2    1   42 1
     3    1   43 1
     4    1   44 1
     5    2    3 1
     6    2    4 1
     7    2   11 1
     8    4    9 ar
     9    4    5 ar
    10    5    6 ar
    11    5   45 1
    12    6    7 ar
    13    6   46 1
    14    7    8 ar
    15    7   47 1
    16    8    9 ar
    17    8   48 1
    18    9   10 1
    19   11   12 1
    20   12   16 2
    21   12   13 1
    22   13   14 2
    23   13   49 1
    24   14   15 1
    25   14   20 1
    26   15   16 1
    27   16   17 1
    28   17   18 2
    29   17   19 am
    30   19   50 1
    31   19   51 1
    32   20   24 1
    33   20   21 1
    34   21   22 2
    35   21   52 1
    36   22   23 1
    37   23   28 ar
    38   23   24 ar
    39   24   25 ar
    40   25   26 ar
    41   25   53 1
    42   26   27 ar
    43   26   54 1
    44   27   28 ar
    45   27   29 1
    46   28   55 1
    47   29   34 ar
    48   29   30 ar
    49   30   31 ar
    50   30   56 1
    51   31   32 ar
    52   31   57 1
    53   32   33 ar
    54   32   70 1
    55   33   34 ar
    56   33   35 1
    57   34   58 1
    58   35   40 1
    59   35   36 1
    60   36   37 1
    61   36   59 1
    62   36   60 1
    63   37   38 1
    64   37   61 1
    65   37   62 1
    66   38   39 1
    67   38   41 1
    68   39   40 1
    69   39   63 1
    70   39   64 1
    71   40   65 1
    72   40   66 1
    73   41   67 1
    74   41   68 1
    75   41   69 1
@<TRIPOS>MOLECULE
CHEMBL1208960
   69    74     0     0     0
SMALL
USER_CHARGES

@<TRIPOS>ATOM
      1 C1         -0.3003    1.6805   -0.0335 C.3       1 <0>        -0.1930
      2 C2         -0.0377    0.1776    0.0812 C.3       1 <0>         0.1037
      3 H1         -0.9864   -0.3510    0.1740 H         1 <0>         0.0904
      4 C3          0.8091   -0.0929    1.2982 C.ar      1 <0>        -0.0456
      5 C4          2.1827   -0.1914    1.1765 C.ar      1 <0>        -0.0899
      6 C5          2.9593   -0.4395    2.2926 C.ar      1 <0>        -0.0826
      7 C6          2.3625   -0.5886    3.5308 C.ar      1 <0>        -0.1118
      8 C7          0.9894   -0.4892    3.6526 C.ar      1 <0>        -0.0709
      9 C8          0.2129   -0.2368    2.5368 C.ar      1 <0>        -0.1771
     10 C9         -1.2839   -0.1232    2.6704 C.3       1 <0>         0.5059
     11 F1         -1.6476   -0.3041    4.0091 F         1 <0>        -0.1692
     12 F2         -1.6954    1.1435    2.2424 F         1 <0>        -0.1721
     13 F3         -1.8980   -1.1036    1.8837 F         1 <0>        -0.1775
     14 O1          0.6485   -0.2766   -1.0870 O.3       1 <0>        -0.2543
     15 C10        -0.1143   -0.6058   -2.1610 C.2       1 <0>         0.1946
     16 C11        -1.4716   -0.3983   -2.1516 C.2       1 <0>        -0.2159
     17 C12        -2.2067   -0.7432   -3.2535 C.2       1 <0>         0.0877
     18 S1         -0.9618   -1.3864   -4.3590 S.3       1 <0>         0.1584
     19 C13         0.4606   -1.1578   -3.3045 C.2       1 <0>        -0.2615
     20 C14         1.8169   -1.4598   -3.5617 C.2       1 <0>         0.6090
     21 O2          2.6624   -1.2347   -2.7139 O.2       1 <0>        -0.5097
     22 N1          2.1751   -1.9967   -4.7448 N.am      1 <0>        -0.8513
     23 N2         -3.5780   -0.6231   -3.4596 N.pl3     1 <0>        -0.4066
     24 C15        -4.5627   -1.0412   -2.6136 C.2       1 <0>         0.2968
     25 N3         -5.7303   -0.7714   -3.1192 N.2       1 <0>        -0.4660
     26 C16        -5.5779   -0.1620   -4.3240 C.ar      1 <0>         0.0504
     27 C17        -4.1953   -0.0523   -4.5575 C.ar      1 <0>         0.0768
     28 C18        -3.7302    0.5420   -5.7229 C.ar      1 <0>        -0.0969
     29 C19        -4.6141    1.0260   -6.6457 C.ar      1 <0>        -0.0669
     30 C20        -5.9915    0.9280   -6.4275 C.ar      1 <0>        -0.1051
     31 C21        -6.4757    0.3291   -5.2721 C.ar      1 <0>        -0.0042
     32 C22        -6.9394    1.4579   -7.4382 C.ar      1 <0>         0.1377
     33 C23        -8.3225    1.3760   -7.2382 C.ar      1 <0>        -0.1761
     34 C24        -9.1715    1.8797   -8.1993 C.ar      1 <0>         0.1569
     35 N4         -8.6988    2.4352   -9.2999 N.ar      1 <0>        -0.5162
     36 C25        -7.3984    2.5343   -9.5312 C.ar      1 <0>         0.4539
     37 C26        -6.4757    2.0558   -8.6097 C.ar      1 <0>        -0.2119
     38 N5         -6.9522    3.1284  -10.7064 N.pl3     1 <0>        -0.5952
     39 C27        -5.5237    3.1296  -11.0595 C.3       1 <0>         0.0752
     40 C28        -5.3805    2.6158  -12.4967 C.3       1 <0>         0.0428
     41 O3         -6.2467    3.3646  -13.3527 O.3       1 <0>        -0.3634
     42 C29        -7.6358    3.2290  -13.0432 C.3       1 <0>         0.0454
     43 C30        -7.8952    3.7692  -11.6367 C.3       1 <0>         0.0636
     44 H2          0.6484    2.2091   -0.1262 H         1 <0>         0.0789
     45 H3         -0.9128    1.8762   -0.9137 H         1 <0>         0.0669
     46 H4         -0.8237    2.0270    0.8576 H         1 <0>         0.0987
     47 H5          2.6489   -0.0749    0.2093 H         1 <0>         0.1481
     48 H6          4.0323   -0.5171    2.1974 H         1 <0>         0.1387
     49 H7          2.9693   -0.7832    4.4028 H         1 <0>         0.1402
     50 H8          0.5232   -0.6061    4.6197 H         1 <0>         0.1436
     51 H9         -1.9532    0.0312   -1.2855 H         1 <0>         0.1610
     52 H10         1.5019   -2.1759   -5.4198 H         1 <0>         0.3967
     53 H11         3.1061   -2.2040   -4.9214 H         1 <0>         0.4128
     54 H12        -4.3971   -1.5260   -1.6628 H         1 <0>         0.2299
     55 H13        -2.6679    0.6221   -5.9002 H         1 <0>         0.1390
     56 H14        -4.2460    1.4878   -7.5499 H         1 <0>         0.1413
     57 H15        -7.5398    0.2550   -5.1030 H         1 <0>         0.1483
     58 H16        -8.7192    0.9231   -6.3415 H         1 <0>         0.1815
     59 H17       -10.2394    1.8188   -8.0505 H         1 <0>         0.2091
     60 H18        -5.4160    2.1420   -8.7992 H         1 <0>         0.1779
     61 H19        -5.1294    4.1435  -10.9911 H         1 <0>         0.1051
     62 H20        -4.9770    2.4759  -10.3798 H         1 <0>         0.1091
     63 H21        -4.3486    2.7381  -12.8259 H         1 <0>         0.1258
     64 H22        -5.6533    1.5612  -12.5352 H         1 <0>         0.0661
     65 H23        -8.2265    3.7923  -13.7656 H         1 <0>         0.1248
     66 H24        -7.9168    2.1766  -13.0837 H         1 <0>         0.0646
     67 H25        -8.9182    3.5389  -11.3391 H         1 <0>         0.0874
     68 H26        -7.7438    4.8485  -11.6274 H         1 <0>         0.1095
     69 H27        -9.3220    2.7805   -9.9582 H         1 <0>         0.4371
@<TRIPOS>BOND
     1    1    2 1
     2    1   44 1
     3    1   45 1
     4    1   46 1
     5    2    3 1
     6    2    4 1
     7    2   14 1
     8    4    9 ar
     9    4    5 ar
    10    5    6 ar
    11    5   47 1
    12    6    7 ar
    13    6   48 1
    14    7    8 ar
    15    7   49 1
    16    8    9 ar
    17    8   50 1
    18    9   10 1
    19   10   11 1
    20   10   12 1
    21   10   13 1
    22   14   15 1
    23   15   19 2
    24   15   16 1
    25   16   17 2
    26   16   51 1
    27   17   18 1
    28   17   23 1
    29   18   19 1
    30   19   20 1
    31   20   21 2
    32   20   22 am
    33   22   52 1
    34   22   53 1
    35   23   27 1
    36   23   24 1
    37   24   25 2
    38   24   54 1
    39   25   26 1
    40   26   31 ar
    41   26   27 ar
    42   27   28 ar
    43   28   29 ar
    44   28   55 1
    45   29   30 ar
    46   29   56 1
    47   30   31 ar
    48   30   32 1
    49   31   57 1
    50   32   37 ar
    51   32   33 ar
    52   33   34 ar
    53   33   58 1
    54   34   35 ar
    55   34   59 1
    56   35   36 ar
    57   35   69 1
    58   36   37 ar
    59   36   38 1
    60   37   60 1
    61   38   43 1
    62   38   39 1
    63   39   40 1
    64   39   61 1
    65   39   62 1
    66   40   41 1
    67   40   63 1
    68   40   64 1
    69   41   42 1
    70   42   43 1
    71   42   65 1
    72   42   66 1
    73   43   67 1
    74   43   68 1
@<TRIPOS>MOLECULE
CHEMBL1208960__1
   68    73     0     0     0
SMALL
USER_CHARGES

@<TRIPOS>ATOM
      1 C1         -0.2268    1.5034   -0.1036 C.3       1 <0>        -0.1928
      2 C2          0.0033   -0.0056    0.0006 C.3       1 <0>         0.1024
      3 H1         -0.9563   -0.5136    0.0967 H         1 <0>         0.0911
      4 C3          0.8520   -0.3020    1.2100 C.ar      1 <0>        -0.0418
      5 C4          2.2223   -0.4302    1.0783 C.ar      1 <0>        -0.0898
      6 C5          3.0008   -0.7020    2.1875 C.ar      1 <0>        -0.0838
      7 C6          2.4092   -0.8454    3.4289 C.ar      1 <0>        -0.1143
      8 C7          1.0394   -0.7164    3.5607 C.ar      1 <0>        -0.0720
      9 C8          0.2612   -0.4402    2.4519 C.ar      1 <0>        -0.1767
     10 C9         -1.2317   -0.2943    2.5965 C.3       1 <0>         0.5054
     11 F1         -1.5903   -0.4751    3.9366 F         1 <0>        -0.1709
     12 F2         -1.6180    0.9838    2.1787 F         1 <0>        -0.1711
     13 F3         -1.8728   -1.2561    1.8083 F         1 <0>        -0.1760
     14 O1          0.6713   -0.4679   -1.1751 O.3       1 <0>        -0.2564
     15 C10        -0.1061   -0.7770   -2.2445 C.2       1 <0>         0.1992
     16 C11        -1.4596   -0.5466   -2.2220 C.2       1 <0>        -0.2320
     17 C12        -2.2098   -0.8717   -3.3197 C.2       1 <0>         0.1139
     18 S1         -0.9855   -1.5288   -4.4400 S.3       1 <0>         0.1523
     19 C13         0.4495   -1.3313   -3.3964 C.2       1 <0>        -0.2743
     20 C14         1.7982   -1.6545   -3.6672 C.2       1 <0>         0.6125
     21 O2          2.6546   -1.4494   -2.8254 O.2       1 <0>        -0.5170
     22 N1          2.1371   -2.1897   -4.8568 N.am      1 <0>        -0.8526
     23 N2         -3.5806   -0.7271   -3.5131 N.pl3     1 <0>        -0.4139
     24 C15        -4.5650   -1.1339   -2.6613 C.2       1 <0>         0.2809
     25 N3         -5.7322   -0.8411   -3.1551 N.2       1 <0>        -0.4666
     26 C16        -5.5796   -0.2264   -4.3573 C.ar      1 <0>         0.0550
     27 C17        -4.1975   -0.1388   -4.6020 C.ar      1 <0>         0.0535
     28 C18        -3.7322    0.4552   -5.7676 C.ar      1 <0>        -0.1031
     29 C19        -4.6156    0.9601   -6.6796 C.ar      1 <0>        -0.0750
     30 C20        -5.9926    0.8841   -6.4501 C.ar      1 <0>        -0.0538
     31 C21        -6.4771    0.2860   -5.2944 C.ar      1 <0>        -0.0356
     32 C22        -6.9399    1.4366   -7.4492 C.ar      1 <0>         0.0468
     33 C23        -8.3225    1.3769   -7.2377 C.ar      1 <0>        -0.2251
     34 C24        -9.1709    1.9012   -8.1883 C.ar      1 <0>         0.1565
     35 N4         -8.6983    2.4558   -9.2893 N.ar      1 <0>        -0.5435
     36 C25        -7.3984    2.5343   -9.5312 C.ar      1 <0>         0.4118
     37 C26        -6.4761    2.0342   -8.6207 C.ar      1 <0>        -0.2331
     38 N5         -6.9522    3.1284  -10.7064 N.pl3     1 <0>        -0.6142
     39 C27        -7.8780    3.8639  -11.5823 C.3       1 <0>         0.0929
     40 C28        -7.2668    5.2360  -11.8884 C.3       1 <0>         0.0452
     41 O3         -5.9351    5.0595  -12.3776 O.3       1 <0>        -0.3789
     42 C29        -5.0427    4.4528  -11.4398 C.3       1 <0>         0.0461
     43 C30        -5.5389    3.0454  -11.1078 C.3       1 <0>         0.0879
     44 H2          0.7328    2.0114   -0.1998 H         1 <0>         0.0774
     45 H3         -0.8407    1.7178   -0.9784 H         1 <0>         0.0693
     46 H4         -0.7363    1.8560    0.7931 H         1 <0>         0.0972
     47 H5          2.6844   -0.3182    0.1086 H         1 <0>         0.1485
     48 H6          4.0711   -0.8029    2.0845 H         1 <0>         0.1375
     49 H7          3.0174   -1.0585    4.2955 H         1 <0>         0.1386
     50 H8          0.5773   -0.8287    4.5304 H         1 <0>         0.1426
     51 H9         -1.9264   -0.1147   -1.3491 H         1 <0>         0.1591
     52 H10         1.4552   -2.3530   -5.5271 H         1 <0>         0.3976
     53 H11         3.0629   -2.4116   -5.0427 H         1 <0>         0.4105
     54 H12        -4.3996   -1.6276   -1.7151 H         1 <0>         0.2235
     55 H13        -2.6703    0.5185   -5.9535 H         1 <0>         0.1300
     56 H14        -4.2475    1.4215   -7.5840 H         1 <0>         0.1380
     57 H15        -7.5408    0.2288   -5.1166 H         1 <0>         0.1431
     58 H16        -8.7192    0.9250   -6.3406 H         1 <0>         0.1359
     59 H17       -10.2385    1.8575   -8.0306 H         1 <0>         0.1592
     60 H18        -5.4167    2.1036   -8.8189 H         1 <0>         0.1343
     61 H19        -8.0226    3.3111  -12.5105 H         1 <0>         0.0699
     62 H20        -8.8358    3.9929  -11.0783 H         1 <0>         0.1038
     63 H21        -7.8680    5.7421  -12.6438 H         1 <0>         0.1068
     64 H22        -7.2439    5.8356  -10.9785 H         1 <0>         0.0549
     65 H23        -4.0439    4.3954  -11.8724 H         1 <0>         0.1077
     66 H24        -5.0117    5.0496  -10.5282 H         1 <0>         0.0561
     67 H25        -4.9485    2.6327  -10.2898 H         1 <0>         0.0928
     68 H26        -5.4440    2.4087  -11.9875 H         1 <0>         0.0765
@<TRIPOS>BOND
     1    1    2 1
     2    1   44 1
     3    1   45 1
     4    1   46 1
     5    2    3 1
     6    2    4 1
     7    2   14 1
     8    4    9 ar
     9    4    5 ar
    10    5    6 ar
    11    5   47 1
    12    6    7 ar
    13    6   48 1
    14    7    8 ar
    15    7   49 1
    16    8    9 ar
    17    8   50 1
    18    9   10 1
    19   10   11 1
    20   10   12 1
    21   10   13 1
    22   14   15 1
    23   15   19 2
    24   15   16 1
    25   16   17 2
    26   16   51 1
    27   17   18 1
    28   17   23 1
    29   18   19 1
    30   19   20 1
    31   20   21 2
    32   20   22 am
    33   22   52 1
    34   22   53 1
    35   23   27 1
    36   23   24 1
    37   24   25 2
    38   24   54 1
    39   25   26 1
    40   26   31 ar
    41   26   27 ar
    42   27   28 ar
    43   28   29 ar
    44   28   55 1
    45   29   30 ar
    46   29   56 1
    47   30   31 ar
    48   30   32 1
    49   31   57 1
    50   32   37 ar
    51   32   33 ar
    52   33   34 ar
    53   33   58 1
    54   34   35 ar
    55   34   59 1
    56   35   36 ar
    57   36   37 ar
    58   36   38 1
    59   37   60 1
    60   38   43 1
    61   38   39 1
    62   39   40 1
    63   39   61 1
    64   39   62 1
    65   40   41 1
    66   40   63 1
    67   40   64 1
    68   41   42 1
    69   42   43 1
    70   42   65 1
    71   42   66 1
    72   43   67 1
    73   43   68 1
@<TRIPOS>MOLECULE
CHEMBL1208893
   56    60     0     0     0
SMALL
USER_CHARGES

@<TRIPOS>ATOM
      1 C1         -0.2380    1.5010   -0.1014 C.3       1 <0>        -0.1929
      2 C2          0.0024   -0.0064    0.0031 C.3       1 <0>         0.1025
      3 H1         -0.9536   -0.5208    0.1016 H         1 <0>         0.0911
      4 C3          0.8557   -0.2965    1.2109 C.ar      1 <0>        -0.0415
      5 C4          2.2265   -0.4156    1.0763 C.ar      1 <0>        -0.0898
      6 C5          3.0091   -0.6816    2.1840 C.ar      1 <0>        -0.0839
      7 C6          2.4212   -0.8282    3.4268 C.ar      1 <0>        -0.1145
      8 C7          1.0509   -0.7083    3.5614 C.ar      1 <0>        -0.0721
      9 C8          0.2684   -0.4379    2.4541 C.ar      1 <0>        -0.1768
     10 C9         -1.2251   -0.3019    2.6018 C.3       1 <0>         0.5055
     11 F1         -1.5796   -0.4843    3.9428 F         1 <0>        -0.1711
     12 F2         -1.6208    0.9733    2.1842 F         1 <0>        -0.1710
     13 F3         -1.8614   -1.2684    1.8156 F         1 <0>        -0.1759
     14 O1          0.6709   -0.4649   -1.1737 O.3       1 <0>        -0.2567
     15 C10        -0.1062   -0.7743   -2.2432 C.2       1 <0>         0.1995
     16 C11        -1.4598   -0.5442   -2.2209 C.2       1 <0>        -0.2335
     17 C12        -2.2097   -0.8692   -3.3189 C.2       1 <0>         0.1162
     18 S1         -0.9850   -1.5257   -4.4391 S.3       1 <0>         0.1517
     19 C13         0.4497   -1.3286   -3.3950 C.2       1 <0>        -0.2754
     20 C14         1.7983   -1.6525   -3.6652 C.2       1 <0>         0.6126
     21 O2          2.6544   -1.4481   -2.8228 O.2       1 <0>        -0.5176
     22 N1          2.1375   -2.1875   -4.8548 N.am      1 <0>        -0.8527
     23 N2         -3.5804   -0.7250   -3.5125 N.pl3     1 <0>        -0.4149
     24 C15        -4.5648   -1.1324   -2.6612 C.2       1 <0>         0.2819
     25 N3         -5.7319   -0.8394   -3.1550 N.2       1 <0>        -0.4696
     26 C16        -5.5797   -0.2238   -4.3569 C.ar      1 <0>         0.0631
     27 C17        -4.1979   -0.1362   -4.6017 C.ar      1 <0>         0.0440
     28 C18        -3.7323    0.4579   -5.7669 C.ar      1 <0>        -0.0963
     29 C19        -4.6241    0.9657   -6.6844 C.ar      1 <0>        -0.0887
     30 C20        -6.0000    0.8872   -6.4496 C.ar      1 <0>        -0.0182
     31 C21        -6.4790    0.2882   -5.2928 C.ar      1 <0>        -0.0580
     32 C22        -6.9523    1.4388   -7.4451 C.ar      1 <0>        -0.2148
     33 C23        -8.3310    1.3764   -7.2283 C.ar      1 <0>         0.2092
     34 N4         -9.1469    1.8790   -8.1381 N.ar      1 <0>        -0.5657
     35 C24        -8.6727    2.4360   -9.2431 C.ar      1 <0>         0.5656
     36 N5         -7.3719    2.5139   -9.4843 N.ar      1 <0>        -0.5664
     37 C25        -6.4925    2.0387   -8.6201 C.ar      1 <0>         0.2091
     38 N6         -9.5607    2.9504  -10.1714 N.pl3     1 <0>        -0.8172
     39 H2          0.7180    2.0153   -0.1999 H         1 <0>         0.0772
     40 H3         -0.8551    1.7108   -0.9750 H         1 <0>         0.0696
     41 H4         -0.7479    1.8507    0.7962 H         1 <0>         0.0971
     42 H5          2.6858   -0.3011    0.1056 H         1 <0>         0.1486
     43 H6          4.0799   -0.7753    2.0788 H         1 <0>         0.1374
     44 H7          3.0326   -1.0368    4.2922 H         1 <0>         0.1384
     45 H8          0.5915   -0.8231    4.5321 H         1 <0>         0.1424
     46 H9         -1.9268   -0.1126   -1.3479 H         1 <0>         0.1589
     47 H10         1.4559   -2.3503   -5.5254 H         1 <0>         0.3977
     48 H11         3.0633   -2.4099   -5.0403 H         1 <0>         0.4103
     49 H12        -4.3995   -1.6263   -1.7151 H         1 <0>         0.2225
     50 H13        -2.6704    0.5220   -5.9533 H         1 <0>         0.1298
     51 H14        -4.2590    1.4273   -7.5899 H         1 <0>         0.1391
     52 H15        -7.5422    0.2297   -5.1122 H         1 <0>         0.1386
     53 H16        -8.7244    0.9236   -6.3302 H         1 <0>         0.1716
     54 H17        -5.4337    2.1097   -8.8209 H         1 <0>         0.1712
     55 H18       -10.5157    2.9003  -10.0086 H         1 <0>         0.4165
     56 H19        -9.2283    3.3611  -10.9849 H         1 <0>         0.4163
@<TRIPOS>BOND
     1    1    2 1
     2    1   39 1
     3    1   40 1
     4    1   41 1
     5    2    3 1
     6    2    4 1
     7    2   14 1
     8    4    9 ar
     9    4    5 ar
    10    5    6 ar
    11    5   42 1
    12    6    7 ar
    13    6   43 1
    14    7    8 ar
    15    7   44 1
    16    8    9 ar
    17    8   45 1
    18    9   10 1
    19   10   11 1
    20   10   12 1
    21   10   13 1
    22   14   15 1
    23   15   19 2
    24   15   16 1
    25   16   17 2
    26   16   46 1
    27   17   18 1
    28   17   23 1
    29   18   19 1
    30   19   20 1
    31   20   21 2
    32   20   22 am
    33   22   47 1
    34   22   48 1
    35   23   27 1
    36   23   24 1
    37   24   25 2
    38   24   49 1
    39   25   26 1
    40   26   31 ar
    41   26   27 ar
    42   27   28 ar
    43   28   29 ar
    44   28   50 1
    45   29   30 ar
    46   29   51 1
    47   30   31 ar
    48   30   32 1
    49   31   52 1
    50   32   37 ar
    51   32   33 ar
    52   33   34 ar
    53   33   53 1
    54   34   35 ar
    55   35   36 ar
    56   35   38 1
    57   36   37 ar
    58   37   54 1
    59   38   55 1
    60   38   56 1
@<TRIPOS>MOLECULE
CHEMBL1092830
   51    54     0     0     0
SMALL
USER_CHARGES

@<TRIPOS>ATOM
      1 C1         -0.0185    1.4906    0.0243 C.3       1 <0>        -0.0816
      2 C2          0.0046   -0.0161    0.0083 C.2       1 <0>         0.0519
      3 C3         -1.0751   -0.8180    0.0070 C.2       1 <0>        -0.2161
      4 C4         -0.5963   -2.1520   -0.0102 C.2       1 <0>         0.1741
      5 C5          0.7516   -2.0809   -0.0184 C.2       1 <0>        -0.1784
      6 O1          1.1066   -0.7831   -0.0130 O.3       1 <0>        -0.1403
      7 C6          1.6971   -3.2543   -0.0363 C.3       1 <0>         0.5651
      8 F1          1.9810   -3.6043   -1.3607 F         1 <0>        -0.1638
      9 F2          2.8835   -2.9072    0.6189 F         1 <0>        -0.1621
     10 F3          1.1046   -4.3406    0.6164 F         1 <0>        -0.1663
     11 N1         -1.3753   -3.3235   -0.0170 N.am      1 <0>        -0.6551
     12 C7         -2.7203   -3.2385   -0.0072 C.2       1 <0>         0.7069
     13 O2         -3.2606   -2.1492    0.0074 O.2       1 <0>        -0.4982
     14 N2         -3.4666   -4.3608   -0.0137 N.am      1 <0>        -0.6248
     15 C8         -4.8537   -4.2731   -0.0036 C.2       1 <0>         0.2869
     16 N3         -5.6044   -3.1929    0.0065 N.2       1 <0>        -0.5160
     17 C9         -6.9221   -3.2779    0.0146 C.2       1 <0>         0.0786
     18 C10        -7.4592   -4.5224    0.0120 C.2       1 <0>        -0.2213
     19 S1         -5.9807   -5.5230   -0.0089 S.3       1 <0>         0.1336
     20 C11        -8.9057   -4.9449    0.0197 C.3       1 <0>        -0.0331
     21 C12        -9.4051   -5.0807   -1.4202 C.3       1 <0>         0.1239
     22 N4        -10.8113   -5.4915   -1.4127 N.pl3     1 <0>        -0.7062
     23 C13       -11.4847   -5.6798   -2.6096 C.ar      1 <0>         0.4715
     24 C14       -10.8331   -5.4870   -3.8245 C.ar      1 <0>        -0.3308
     25 C15       -11.5529   -5.6893   -4.9974 C.ar      1 <0>         0.4535
     26 N5        -12.8303   -6.0574   -4.9166 N.ar      1 <0>        -0.6253
     27 C16       -13.4117   -6.2297   -3.7473 C.ar      1 <0>         0.3902
     28 N6        -12.7629   -6.0531   -2.6141 N.ar      1 <0>        -0.5932
     29 N7        -10.9486   -5.5096   -6.2345 N.pl3     1 <0>        -0.6052
     30 C17       -11.6403   -5.8178   -7.3947 C.2       1 <0>         0.5099
     31 N8        -11.1545   -5.7891   -8.6169 N.2       1 <0>        -0.5704
     32 C18       -12.1015   -6.1447   -9.4856 C.2       1 <0>         0.2209
     33 N9        -13.2032   -6.4053   -8.8343 N.2       1 <0>        -0.3197
     34 H1        -13.5476   -6.3232   -6.7318 H         1 <0>         0.4523
     35 N10       -12.9306   -6.2066   -7.4712 N.pl3     1 <0>        -0.4685
     36 H2          1.0034    1.8698    0.0164 H         1 <0>         0.0845
     37 H3         -0.5481    1.8552   -0.8559 H         1 <0>         0.0973
     38 H4         -0.5276    1.8366    0.9239 H         1 <0>         0.0974
     39 H5         -2.1088   -0.5054    0.0176 H         1 <0>         0.1863
     40 H6         -0.9443   -4.1924   -0.0286 H         1 <0>         0.4141
     41 H7         -3.0356   -5.2297   -0.0254 H         1 <0>         0.4263
     42 H8         -7.5442   -2.3951    0.0232 H         1 <0>         0.1776
     43 H9         -9.0015   -5.9037    0.5294 H         1 <0>         0.0910
     44 H10        -9.5005   -4.1951    0.5413 H         1 <0>         0.1018
     45 H11        -9.3093   -4.1220   -1.9299 H         1 <0>         0.0762
     46 H12        -8.8103   -5.8305   -1.9418 H         1 <0>         0.0730
     47 H13       -11.2711   -5.6317   -0.5702 H         1 <0>         0.4132
     48 H14        -9.7958   -5.1879   -3.8556 H         1 <0>         0.1469
     49 H15       -14.4491   -6.5282   -3.7165 H         1 <0>         0.2058
     50 H16       -10.0421   -5.1683   -6.2865 H         1 <0>         0.4437
     51 H17       -11.9774   -6.2073  -10.5566 H         1 <0>         0.2219
@<TRIPOS>BOND
     1    1    2 1
     2    1   36 1
     3    1   37 1
     4    1   38 1
     5    2    6 1
     6    2    3 2
     7    3    4 1
     8    3   39 1
     9    4    5 2
    10    4   11 1
    11    5    6 1
    12    5    7 1
    13    7    8 1
    14    7    9 1
    15    7   10 1
    16   11   12 am
    17   11   40 1
    18   12   13 2
    19   12   14 am
    20   14   15 1
    21   14   41 1
    22   15   19 1
    23   15   16 2
    24   16   17 1
    25   17   18 2
    26   17   42 1
    27   18   19 1
    28   18   20 1
    29   20   21 1
    30   20   43 1
    31   20   44 1
    32   21   22 1
    33   21   45 1
    34   21   46 1
    35   22   23 1
    36   22   47 1
    37   23   28 ar
    38   23   24 ar
    39   24   25 ar
    40   24   48 1
    41   25   26 ar
    42   25   29 1
    43   26   27 ar
    44   27   28 ar
    45   27   49 1
    46   29   30 1
    47   29   50 1
    48   30   31 2
    49   30   35 1
    50   31   32 1
    51   32   51 1
    52   32   33 2
    53   33   35 1
    54   34   35 1
@<TRIPOS>MOLECULE
CHEMBL1092830__1
   52    55     0     0     0
SMALL
USER_CHARGES

@<TRIPOS>ATOM
      1 C1         -1.7595    4.0382   -0.5740 C.3       1 <0>        -0.0829
      2 C2         -1.4608    2.5694   -0.4178 C.2       1 <0>         0.0543
      3 C3         -2.3747    1.5850   -0.3516 C.2       1 <0>        -0.2172
      4 C4         -1.6599    0.3696   -0.2062 C.2       1 <0>         0.1701
      5 C5         -0.3486    0.6894   -0.1927 C.2       1 <0>        -0.1740
      6 O1         -0.2373    2.0235   -0.3272 O.3       1 <0>        -0.1387
      7 C6          0.7952   -0.2822   -0.0559 C.3       1 <0>         0.5643
      8 F1          1.1947   -0.7139   -1.3253 F         1 <0>        -0.1636
      9 F2          1.8691    0.3485    0.5815 F         1 <0>        -0.1605
     10 F3          0.3838   -1.3831    0.7030 F         1 <0>        -0.1666
     11 N1         -2.2107   -0.9203   -0.0967 N.am      1 <0>        -0.6536
     12 C7         -3.5478   -1.0869   -0.1263 C.2       1 <0>         0.7072
     13 O2         -4.2781   -0.1222   -0.2478 O.2       1 <0>        -0.4973
     14 N2         -4.0755   -2.3226   -0.0214 N.am      1 <0>        -0.6253
     15 C8         -5.4544   -2.4944   -0.0520 C.2       1 <0>         0.2991
     16 N3         -6.3896   -1.5784   -0.1816 N.2       1 <0>        -0.5189
     17 C9         -7.6687   -1.9061   -0.1929 C.2       1 <0>         0.0909
     18 C10        -7.9688   -3.2217   -0.0656 C.2       1 <0>        -0.2410
     19 S1         -6.3328   -3.9256    0.0602 S.3       1 <0>         0.1381
     20 C11        -9.3127   -3.9031   -0.0418 C.3       1 <0>        -0.0319
     21 C12        -9.7168   -4.2840   -1.4675 C.3       1 <0>         0.1031
     22 N4        -11.0233   -4.9464   -1.4443 N.pl3     1 <0>        -0.6521
     23 C13       -11.5992   -5.3848   -2.6265 C.ar      1 <0>         0.4957
     24 C14       -10.9424   -5.2062   -3.8408 C.ar      1 <0>        -0.2858
     25 C15       -11.5622   -5.6643   -4.9987 C.ar      1 <0>         0.4657
     26 N5        -12.7532   -6.2531   -4.9047 N.ar      1 <0>        -0.5638
     27 C16       -13.3427   -6.4037   -3.7364 C.ar      1 <0>         0.4341
     28 N6        -12.7862   -5.9881   -2.6167 N.ar      1 <0>        -0.5329
     29 N7        -10.9486   -5.5096   -6.2345 N.pl3     1 <0>        -0.6107
     30 C17        -9.6510   -5.0294   -6.3084 C.2       1 <0>         0.5024
     31 N8         -8.8554   -4.7876   -5.2891 N.2       1 <0>        -0.5517
     32 C18        -7.6821   -4.3348   -5.7320 C.2       1 <0>         0.2371
     33 N9         -7.7097   -4.2805   -7.0367 N.2       1 <0>        -0.2724
     34 H1         -9.3034   -4.8125   -8.3492 H         1 <0>         0.4506
     35 N10        -8.9768   -4.7322   -7.4394 N.pl3     1 <0>        -0.4758
     36 H2         -0.8247    4.5980   -0.6025 H         1 <0>         0.0858
     37 H3         -2.3086    4.2006   -1.5015 H         1 <0>         0.0975
     38 H4         -2.3612    4.3782    0.2688 H         1 <0>         0.0980
     39 H5         -3.4476    1.6988   -0.3994 H         1 <0>         0.1857
     40 H6         -1.6281   -1.6898    0.0002 H         1 <0>         0.4147
     41 H7         -3.4929   -3.0921    0.0755 H         1 <0>         0.4275
     42 H8         -8.4414   -1.1590   -0.2986 H         1 <0>         0.1768
     43 H9         -9.2534   -4.8022    0.5715 H         1 <0>         0.0949
     44 H10       -10.0562   -3.2255    0.3778 H         1 <0>         0.1043
     45 H11        -9.7761   -3.3849   -2.0808 H         1 <0>         0.0947
     46 H12        -8.9733   -4.9616   -1.8871 H         1 <0>         0.0961
     47 H13       -11.4854   -5.0781   -0.6016 H         1 <0>         0.4283
     48 H14        -9.9768   -4.7241   -3.8828 H         1 <0>         0.2284
     49 H15       -14.3085   -6.8851   -3.6947 H         1 <0>         0.2507
     50 H16       -11.4283   -5.7377   -7.0462 H         1 <0>         0.4406
     51 H17        -6.8430   -4.0573   -5.1112 H         1 <0>         0.2344
     52 H18       -13.1924   -6.5752   -5.7073 H         1 <0>         0.4457
@<TRIPOS>BOND
     1    1    2 1
     2    1   36 1
     3    1   37 1
     4    1   38 1
     5    2    6 1
     6    2    3 2
     7    3    4 1
     8    3   39 1
     9    4    5 2
    10    4   11 1
    11    5    6 1
    12    5    7 1
    13    7    8 1
    14    7    9 1
    15    7   10 1
    16   11   12 am
    17   11   40 1
    18   12   13 2
    19   12   14 am
    20   14   15 1
    21   14   41 1
    22   15   19 1
    23   15   16 2
    24   16   17 1
    25   17   18 2
    26   17   42 1
    27   18   19 1
    28   18   20 1
    29   20   21 1
    30   20   43 1
    31   20   44 1
    32   21   22 1
    33   21   45 1
    34   21   46 1
    35   22   23 1
    36   22   47 1
    37   23   28 ar
    38   23   24 ar
    39   24   25 ar
    40   24   48 1
    41   25   26 ar
    42   25   29 1
    43   26   27 ar
    44   26   52 1
    45   27   28 ar
    46   27   49 1
    47   29   30 1
    48   29   50 1
    49   30   31 2
    50   30   35 1
    51   31   32 1
    52   32   51 1
    53   32   33 2
    54   33   35 1
    55   34   35 1
@<TRIPOS>MOLECULE
CHEMBL516362
   54    57     0     0     0
SMALL
USER_CHARGES

@<TRIPOS>ATOM
      1 C1         -0.0173    1.4248    0.0099 C.3       1 <0>         0.0223
      2 O1          0.0021   -0.0041    0.0020 O.3       1 <0>        -0.2998
      3 C2          0.6064   -0.6077   -1.0568 C.ar      1 <0>         0.1124
      4 C3          1.1688    0.1605   -2.0550 C.ar      1 <0>        -0.1254
      5 C4          1.7901   -0.4601   -3.1426 C.ar      1 <0>         0.0600
      6 C5          1.8355   -1.8625   -3.2080 C.ar      1 <0>         0.0546
      7 C6          1.2663   -2.6248   -2.1979 C.ar      1 <0>        -0.1733
      8 C7          0.6590   -2.0011   -1.1242 C.ar      1 <0>         0.1401
      9 O2          0.1056   -2.7483   -0.1314 O.3       1 <0>        -0.2950
     10 C8          0.1943   -4.1685   -0.2621 C.3       1 <0>         0.0213
     11 N1          2.5039   -2.1682   -4.3818 N.pl3     1 <0>        -0.4129
     12 C9          2.8350   -0.9859   -4.9771 C.2       1 <0>         0.2743
     13 N2          2.4177    0.0103   -4.2526 N.2       1 <0>        -0.4668
     14 C10         2.7852   -3.4430   -4.8640 C.2       1 <0>         0.1164
     15 C11         2.5620   -3.9560   -6.1133 C.2       1 <0>        -0.2314
     16 C12         2.9218   -5.2546   -6.3774 C.2       1 <0>         0.1989
     17 C13         3.5035   -5.9992   -5.3527 C.2       1 <0>        -0.2777
     18 S1          3.5356   -4.8205   -4.0123 S.3       1 <0>         0.1415
     19 C14         3.9553   -7.3379   -5.3715 C.2       1 <0>         0.6110
     20 O3          3.8568   -7.9998   -6.3896 O.2       1 <0>        -0.5160
     21 N3          4.4952   -7.8826   -4.2632 N.am      1 <0>        -0.8536
     22 O4          2.7161   -5.7989   -7.6041 O.3       1 <0>        -0.2673
     23 C15         2.1142   -4.9611   -8.5930 C.3       1 <0>         0.0495
     24 C16         1.9636   -5.7421   -9.9000 C.3       1 <0>        -0.1124
     25 C17         1.3191   -4.8451  -10.9588 C.3       1 <0>        -0.0763
     26 C18         1.1708   -5.6144  -12.2461 C.ar      1 <0>        -0.0844
     27 C19         2.1896   -5.6013  -13.1804 C.ar      1 <0>        -0.1157
     28 C20         2.0536   -6.3069  -14.3613 C.ar      1 <0>        -0.1179
     29 C21         0.8990   -7.0259  -14.6077 C.ar      1 <0>        -0.1224
     30 C22        -0.1194   -7.0397  -13.6731 C.ar      1 <0>        -0.1179
     31 C23         0.0184   -6.3376  -12.4903 C.ar      1 <0>        -0.1159
     32 H1          1.0053    1.8021    0.0021 H         1 <0>         0.0586
     33 H2         -0.5445    1.7859   -0.8732 H         1 <0>         0.0585
     34 H3         -0.5275    1.7763    0.9067 H         1 <0>         0.1047
     35 H4          1.1289    1.2382   -1.9966 H         1 <0>         0.1506
     36 H5          1.3011   -3.7030   -2.2486 H         1 <0>         0.1403
     37 H6         -0.3070   -4.4811   -1.1781 H         1 <0>         0.0573
     38 H7          1.2425   -4.4650   -0.3022 H         1 <0>         0.0580
     39 H8         -0.2849   -4.6428    0.5943 H         1 <0>         0.1068
     40 H9          3.3661   -0.8913   -5.9127 H         1 <0>         0.2227
     41 H10         2.1084   -3.3472   -6.8814 H         1 <0>         0.1588
     42 H11         4.5736   -7.3556   -3.4526 H         1 <0>         0.3971
     43 H12         4.8053   -8.8015   -4.2761 H         1 <0>         0.4100
     44 H13         1.1320   -4.6388   -8.2471 H         1 <0>         0.0670
     45 H14         2.7444   -4.0880   -8.7620 H         1 <0>         0.0677
     46 H15         2.9457   -6.0644  -10.2459 H         1 <0>         0.0798
     47 H16         1.3334   -6.6152   -9.7310 H         1 <0>         0.0794
     48 H17         0.3370   -4.5228  -10.6129 H         1 <0>         0.0760
     49 H18         1.9494   -3.9720  -11.1277 H         1 <0>         0.0764
     50 H19         3.0917   -5.0395  -12.9878 H         1 <0>         0.1216
     51 H20         2.8493   -6.2961  -15.0915 H         1 <0>         0.1225
     52 H21         0.7924   -7.5766  -15.5306 H         1 <0>         0.1218
     53 H22        -1.0216   -7.6012  -13.8658 H         1 <0>         0.1224
     54 H23        -0.7757   -6.3514  -11.7585 H         1 <0>         0.1214
@<TRIPOS>BOND
     1    1    2 1
     2    1   32 1
     3    1   33 1
     4    1   34 1
     5    2    3 1
     6    3    8 ar
     7    3    4 ar
     8    4    5 ar
     9    4   35 1
    10    5   13 1
    11    5    6 ar
    12    6    7 ar
    13    6   11 1
    14    7    8 ar
    15    7   36 1
    16    8    9 1
    17    9   10 1
    18   10   37 1
    19   10   38 1
    20   10   39 1
    21   11   12 1
    22   11   14 1
    23   12   13 2
    24   12   40 1
    25   14   18 1
    26   14   15 2
    27   15   16 1
    28   15   41 1
    29   16   17 2
    30   16   22 1
    31   17   18 1
    32   17   19 1
    33   19   20 2
    34   19   21 am
    35   21   42 1
    36   21   43 1
    37   22   23 1
    38   23   24 1
    39   23   44 1
    40   23   45 1
    41   24   25 1
    42   24   46 1
    43   24   47 1
    44   25   26 1
    45   25   48 1
    46   25   49 1
    47   26   31 ar
    48   26   27 ar
    49   27   28 ar
    50   27   50 1
    51   28   29 ar
    52   28   51 1
    53   29   30 ar
    54   29   52 1
    55   30   31 ar
    56   30   53 1
    57   31   54 1
@<TRIPOS>MOLECULE
CHEMBL473629
   51    54     0     0     0
SMALL
USER_CHARGES

@<TRIPOS>ATOM
      1 C1         -0.0173    1.4248    0.0099 C.3       1 <0>         0.0223
      2 O1          0.0021   -0.0041    0.0020 O.3       1 <0>        -0.2999
      3 C2          0.6265   -0.6190    1.0426 C.ar      1 <0>         0.1123
      4 C3          1.1980    0.1384    2.0439 C.ar      1 <0>        -0.1253
      5 C4          1.8391   -0.4938    3.1132 C.ar      1 <0>         0.0600
      6 C5          1.8949   -1.8967    3.1571 C.ar      1 <0>         0.0546
      7 C6          1.3163   -2.6480    2.1441 C.ar      1 <0>        -0.1733
      8 C7          0.6802   -2.0130    1.0939 C.ar      1 <0>         0.1401
      9 O2          0.1086   -2.7495    0.1035 O.3       1 <0>        -0.2950
     10 C8          0.1996   -4.1711    0.2173 C.3       1 <0>         0.0213
     11 N1          2.5821   -2.2150    4.3165 N.pl3     1 <0>        -0.4129
     12 C9          2.9138   -1.0393    4.9245 C.2       1 <0>         0.2745
     13 N2          2.4794   -0.0354    4.2209 N.2       1 <0>        -0.4666
     14 C10         2.8790   -3.4948    4.7757 C.2       1 <0>         0.1169
     15 C11         4.0805   -3.9976    5.1968 C.2       1 <0>        -0.2315
     16 C12         4.1496   -5.3039    5.6145 C.2       1 <0>         0.1997
     17 C13         2.9832   -6.0665    5.5909 C.2       1 <0>        -0.2775
     18 S1          1.7879   -4.8936    4.9721 S.3       1 <0>         0.1419
     19 C14         2.7945   -7.4160    5.9647 C.2       1 <0>         0.6114
     20 O3          3.7357   -8.0716    6.3752 O.2       1 <0>        -0.5163
     21 N3          1.5734   -7.9779    5.8671 N.am      1 <0>        -0.8535
     22 O4          5.3233   -5.8386    6.0387 O.3       1 <0>        -0.2680
     23 C15         6.4675   -4.9825    6.0287 C.3       1 <0>         0.0561
     24 C16         7.6868   -5.7549    6.5362 C.3       1 <0>        -0.0772
     25 C17         8.8934   -4.8521    6.5256 C.ar      1 <0>        -0.0875
     26 C18         9.6914   -4.7781    5.3993 C.ar      1 <0>        -0.1133
     27 C19        10.7982   -3.9499    5.3896 C.ar      1 <0>        -0.1178
     28 C20        11.1067   -3.1955    6.5060 C.ar      1 <0>        -0.1186
     29 C21        10.3082   -3.2688    7.6320 C.ar      1 <0>        -0.1177
     30 C22         9.1990   -4.0937    7.6402 C.ar      1 <0>        -0.1131
     31 H1          1.0053    1.8021    0.0021 H         1 <0>         0.0585
     32 H2         -0.5445    1.7859   -0.8732 H         1 <0>         0.1047
     33 H3         -0.5275    1.7763    0.9067 H         1 <0>         0.0586
     34 H4          1.1506    1.2165    2.0017 H         1 <0>         0.1506
     35 H5          1.3597   -3.7266    2.1780 H         1 <0>         0.1403
     36 H6         -0.2952   -4.6362   -0.6353 H         1 <0>         0.1068
     37 H7          1.2483   -4.4678    0.2350 H         1 <0>         0.0572
     38 H8         -0.2848   -4.4936    1.1389 H         1 <0>         0.0580
     39 H9          3.4572   -0.9548    5.8540 H         1 <0>         0.2226
     40 H10         4.9629   -3.3750    5.2002 H         1 <0>         0.1586
     41 H11         0.8240   -7.4559    5.5403 H         1 <0>         0.3971
     42 H12         1.4439   -8.9043    6.1238 H         1 <0>         0.4100
     43 H13         6.6537   -4.6369    5.0119 H         1 <0>         0.0679
     44 H14         6.2853   -4.1249    6.6763 H         1 <0>         0.0686
     45 H15         7.5006   -6.1005    7.5530 H         1 <0>         0.0882
     46 H16         7.8690   -6.6125    5.8886 H         1 <0>         0.0878
     47 H17         9.4504   -5.3675    4.5270 H         1 <0>         0.1231
     48 H18        11.4221   -3.8927    4.5098 H         1 <0>         0.1239
     49 H19        11.9719   -2.5490    6.4987 H         1 <0>         0.1233
     50 H20        10.5495   -2.6796    8.5044 H         1 <0>         0.1242
     51 H21         8.5730   -4.1482    8.5186 H         1 <0>         0.1236
@<TRIPOS>BOND
     1    1    2 1
     2    1   31 1
     3    1   32 1
     4    1   33 1
     5    2    3 1
     6    3    8 ar
     7    3    4 ar
     8    4    5 ar
     9    4   34 1
    10    5   13 1
    11    5    6 ar
    12    6    7 ar
    13    6   11 1
    14    7    8 ar
    15    7   35 1
    16    8    9 1
    17    9   10 1
    18   10   36 1
    19   10   37 1
    20   10   38 1
    21   11   12 1
    22   11   14 1
    23   12   13 2
    24   12   39 1
    25   14   18 1
    26   14   15 2
    27   15   16 1
    28   15   40 1
    29   16   17 2
    30   16   22 1
    31   17   18 1
    32   17   19 1
    33   19   20 2
    34   19   21 am
    35   21   41 1
    36   21   42 1
    37   22   23 1
    38   23   24 1
    39   23   43 1
    40   23   44 1
    41   24   25 1
    42   24   45 1
    43   24   46 1
    44   25   30 ar
    45   25   26 ar
    46   26   27 ar
    47   26   47 1
    48   27   28 ar
    49   27   48 1
    50   28   29 ar
    51   28   49 1
    52   29   30 ar
    53   29   50 1
    54   30   51 1
@<TRIPOS>MOLECULE
CHEMBL473630
   51    54     0     0     0
SMALL
USER_CHARGES

@<TRIPOS>ATOM
      1 C1         -0.0173    1.4248    0.0099 C.3       1 <0>         0.0223
      2 O1          0.0021   -0.0041    0.0020 O.3       1 <0>        -0.2998
      3 C2          0.6064   -0.6077   -1.0568 C.ar      1 <0>         0.1124
      4 C3          1.1688    0.1605   -2.0550 C.ar      1 <0>        -0.1254
      5 C4          1.7901   -0.4601   -3.1426 C.ar      1 <0>         0.0599
      6 C5          1.8355   -1.8625   -3.2080 C.ar      1 <0>         0.0546
      7 C6          1.2663   -2.6248   -2.1979 C.ar      1 <0>        -0.1732
      8 C7          0.6590   -2.0011   -1.1242 C.ar      1 <0>         0.1400
      9 O2          0.1056   -2.7483   -0.1314 O.3       1 <0>        -0.2950
     10 C8          0.1943   -4.1685   -0.2621 C.3       1 <0>         0.0213
     11 N1          2.5039   -2.1682   -4.3818 N.pl3     1 <0>        -0.4129
     12 C9          2.8350   -0.9859   -4.9771 C.2       1 <0>         0.2743
     13 N2          2.4177    0.0103   -4.2526 N.2       1 <0>        -0.4668
     14 C10         2.7852   -3.4430   -4.8640 C.2       1 <0>         0.1164
     15 C11         2.5620   -3.9560   -6.1133 C.2       1 <0>        -0.2315
     16 C12         2.9218   -5.2546   -6.3774 C.2       1 <0>         0.1990
     17 C13         3.5035   -5.9992   -5.3527 C.2       1 <0>        -0.2783
     18 S1          3.5356   -4.8205   -4.0123 S.3       1 <0>         0.1403
     19 C14         3.9553   -7.3379   -5.3715 C.2       1 <0>         0.6113
     20 O3          3.8568   -7.9998   -6.3896 O.2       1 <0>        -0.5158
     21 N3          4.4952   -7.8826   -4.2632 N.am      1 <0>        -0.8538
     22 O4          2.7161   -5.7989   -7.6041 O.3       1 <0>        -0.2650
     23 C15         2.1142   -4.9611   -8.5930 C.3       1 <0>         0.0560
     24 C16         1.9636   -5.7421   -9.9000 C.3       1 <0>        -0.0903
     25 C17         3.3528   -6.0352  -10.5035 C.3       1 <0>        -0.1162
     26 C18         3.1402   -5.8963  -12.0314 C.3       1 <0>        -0.1277
     27 C19         2.1585   -4.7025  -12.1327 C.3       1 <0>        -0.1255
     28 C20         1.2043   -4.8947  -10.9359 C.3       1 <0>        -0.1175
     29 H1          1.0053    1.8021    0.0021 H         1 <0>         0.0586
     30 H2         -0.5445    1.7859   -0.8732 H         1 <0>         0.0585
     31 H3         -0.5275    1.7763    0.9067 H         1 <0>         0.1048
     32 H4          1.1289    1.2382   -1.9966 H         1 <0>         0.1506
     33 H5          1.3011   -3.7030   -2.2486 H         1 <0>         0.1403
     34 H6         -0.2849   -4.6428    0.5943 H         1 <0>         0.1068
     35 H7         -0.3070   -4.4811   -1.1781 H         1 <0>         0.0572
     36 H8          1.2425   -4.4650   -0.3022 H         1 <0>         0.0580
     37 H9          3.3661   -0.8913   -5.9127 H         1 <0>         0.2225
     38 H10         2.1084   -3.3472   -6.8814 H         1 <0>         0.1580
     39 H11         4.5736   -7.3556   -3.4526 H         1 <0>         0.3970
     40 H12         4.8053   -8.8015   -4.2761 H         1 <0>         0.4098
     41 H13         1.1320   -4.6388   -8.2471 H         1 <0>         0.0654
     42 H14         2.7444   -4.0880   -8.7620 H         1 <0>         0.0674
     43 H15         1.4304   -6.6752   -9.7178 H         1 <0>         0.0867
     44 H16         4.0829   -5.3062  -10.1520 H         1 <0>         0.0655
     45 H17         3.6716   -7.0471  -10.2531 H         1 <0>         0.0727
     46 H18         4.0803   -5.6669  -12.5329 H         1 <0>         0.0677
     47 H19         2.6922   -6.8007  -12.4429 H         1 <0>         0.0685
     48 H20         2.6958   -3.7582  -12.0444 H         1 <0>         0.0658
     49 H21         1.6058   -4.7416  -13.0714 H         1 <0>         0.0677
     50 H22         0.3030   -5.4169  -11.2571 H         1 <0>         0.0719
     51 H23         0.9430   -3.9271  -10.5075 H         1 <0>         0.0656
@<TRIPOS>BOND
     1    1    2 1
     2    1   29 1
     3    1   30 1
     4    1   31 1
     5    2    3 1
     6    3    8 ar
     7    3    4 ar
     8    4    5 ar
     9    4   32 1
    10    5   13 1
    11    5    6 ar
    12    6    7 ar
    13    6   11 1
    14    7    8 ar
    15    7   33 1
    16    8    9 1
    17    9   10 1
    18   10   34 1
    19   10   35 1
    20   10   36 1
    21   11   12 1
    22   11   14 1
    23   12   13 2
    24   12   37 1
    25   14   18 1
    26   14   15 2
    27   15   16 1
    28   15   38 1
    29   16   17 2
    30   16   22 1
    31   17   18 1
    32   17   19 1
    33   19   20 2
    34   19   21 am
    35   21   39 1
    36   21   40 1
    37   22   23 1
    38   23   24 1
    39   23   41 1
    40   23   42 1
    41   24   28 1
    42   24   25 1
    43   24   43 1
    44   25   26 1
    45   25   44 1
    46   25   45 1
    47   26   27 1
    48   26   46 1
    49   26   47 1
    50   27   28 1
    51   27   48 1
    52   27   49 1
    53   28   50 1
    54   28   51 1
@<TRIPOS>MOLECULE
CHEMBL561286
   56    60     0     0     0
SMALL
USER_CHARGES

@<TRIPOS>ATOM
      1 C1          0.2924    1.2790   -0.1308 C.3       1 <0>        -0.1786
      2 C2          0.0646   -0.2292   -0.0104 C.3       1 <0>         0.1071
      3 H1          0.5180   -0.7343   -0.8632 H         1 <0>         0.0970
      4 C3          0.6932   -0.7320    1.2636 C.ar      1 <0>        -0.0407
      5 C4         -0.0724   -0.8641    2.4070 C.ar      1 <0>        -0.0717
      6 C5          0.5040   -1.3253    3.5755 C.ar      1 <0>        -0.0856
      7 C6          1.8466   -1.6547    3.6017 C.ar      1 <0>        -0.1550
      8 C7          2.6130   -1.5230    2.4593 C.ar      1 <0>        -0.0849
      9 C8          2.0352   -1.0668    1.2876 C.ar      1 <0>        -0.0302
     10 Cl1         2.9958   -0.9074   -0.1496 Cl        1 <0>        -0.0379
     11 C9          2.4744   -2.1570    4.8763 C.3       1 <0>         0.0531
     12 N1          2.3662   -3.6210    4.9316 N.4       1 <0>        -0.4802
     13 C10         2.9782   -4.1106    6.1741 C.3       1 <0>        -0.0846
     14 C11         4.2074   -5.0129    6.0483 C.3       1 <0>        -0.1545
     15 C12         2.8635   -5.6060    6.4765 C.3       1 <0>        -0.1545
     16 O1         -1.3386   -0.4987    0.0122 O.3       1 <0>        -0.2666
     17 C13        -1.9649   -0.6067   -1.1879 C.2       1 <0>         0.2039
     18 C14        -1.2942   -0.3504   -2.3536 C.2       1 <0>        -0.2558
     19 C15        -1.9771   -0.4741   -3.5570 C.2       1 <0>         0.0178
     20 S1         -3.6073   -0.9651   -3.0209 S.3       1 <0>         0.1148
     21 C16        -3.3053   -0.9869   -1.2617 C.2       1 <0>        -0.2975
     22 C17        -4.1957   -1.3053   -0.2129 C.2       1 <0>         0.6163
     23 O2         -3.8142   -1.2651    0.9436 O.2       1 <0>        -0.5325
     24 N2         -5.4676   -1.6537   -0.4912 N.am      1 <0>        -0.8536
     25 C18        -1.4839   -0.2557   -4.9220 C.2       1 <0>        -0.0401
     26 C19        -0.1846    0.0268   -5.2952 C.2       1 <0>         0.1110
     27 N3         -0.1495    0.1535   -6.6166 N.2       1 <0>        -0.4840
     28 C20        -1.3665   -0.0338   -7.1169 C.2       1 <0>         0.2504
     29 N4         -2.2259   -0.2983   -6.0835 N.pl3     1 <0>        -0.3474
     30 C21        -3.5462   -0.5360   -6.3236 C.2       1 <0>         0.0485
     31 C22        -4.0301   -0.5185   -7.5848 C.2       1 <0>        -0.1215
     32 C23        -3.1747   -0.2547   -8.6657 C.2       1 <0>        -0.0861
     33 C24        -1.8553   -0.0074   -8.4368 C.2       1 <0>        -0.0781
     34 H2          1.3627    1.4846   -0.1480 H         1 <0>         0.0807
     35 H3         -0.1623    1.6427   -1.0523 H         1 <0>         0.0786
     36 H4         -0.1610    1.7842    0.7221 H         1 <0>         0.0764
     37 H5         -1.1210   -0.6066    2.3873 H         1 <0>         0.1593
     38 H6         -0.0944   -1.4280    4.4687 H         1 <0>         0.1422
     39 H7          3.6618   -1.7801    2.4799 H         1 <0>         0.1455
     40 H8          3.5254   -1.8691    4.9016 H         1 <0>         0.1411
     41 H9          1.9578   -1.7219    5.7318 H         1 <0>         0.1425
     42 H10         1.3933   -3.8874    4.9081 H         1 <0>         0.4293
     43 H11         2.9430   -3.4222    7.0185 H         1 <0>         0.1791
     44 H12         4.5619   -5.2433    5.0437 H         1 <0>         0.1209
     45 H13         4.9813   -4.9182    6.8100 H         1 <0>         0.1342
     46 H14         2.7534   -5.9015    7.5199 H         1 <0>         0.1346
     47 H15         2.3341   -6.2266    5.7535 H         1 <0>         0.1210
     48 H16        -0.2548   -0.0574   -2.3379 H         1 <0>         0.1553
     49 H17        -5.7713   -1.6857   -1.4119 H         1 <0>         0.3980
     50 H18        -6.0793   -1.8724    0.2291 H         1 <0>         0.4093
     51 H19         0.6580    0.1276   -4.6272 H         1 <0>         0.1909
     52 H20        -4.2117   -0.7407   -5.4980 H         1 <0>         0.1601
     53 H21        -5.0784   -0.7085   -7.7618 H         1 <0>         0.1616
     54 H22        -3.5623   -0.2416   -9.6737 H         1 <0>         0.1540
     55 H23        -1.1877    0.1952   -9.2613 H         1 <0>         0.1620
     56 H24         2.8444   -4.0237    4.1397 H         1 <0>         0.4252
@<TRIPOS>BOND
     1    1    2 1
     2    1   34 1
     3    1   35 1
     4    1   36 1
     5    2    3 1
     6    2    4 1
     7    2   16 1
     8    4    9 ar
     9    4    5 ar
    10    5    6 ar
    11    5   37 1
    12    6    7 ar
    13    6   38 1
    14    7    8 ar
    15    7   11 1
    16    8    9 ar
    17    8   39 1
    18    9   10 1
    19   11   12 1
    20   11   40 1
    21   11   41 1
    22   12   13 1
    23   12   42 1
    24   12   56 1
    25   13   15 1
    26   13   14 1
    27   13   43 1
    28   14   15 1
    29   14   44 1
    30   14   45 1
    31   15   46 1
    32   15   47 1
    33   16   17 1
    34   17   21 2
    35   17   18 1
    36   18   19 2
    37   18   48 1
    38   19   20 1
    39   19   25 1
    40   20   21 1
    41   21   22 1
    42   22   23 2
    43   22   24 am
    44   24   49 1
    45   24   50 1
    46   25   29 1
    47   25   26 2
    48   26   27 1
    49   26   51 1
    50   27   28 2
    51   28   33 1
    52   28   29 1
    53   29   30 1
    54   30   31 2
    55   30   52 1
    56   31   32 1
    57   31   53 1
    58   32   33 2
    59   32   54 1
    60   33   55 1
@<TRIPOS>MOLECULE
CHEMBL561286__1
   57    61     0     0     0
SMALL
USER_CHARGES

@<TRIPOS>ATOM
      1 C1          0.2924    1.2790   -0.1308 C.3       1 <0>        -0.1809
      2 C2          0.0646   -0.2292   -0.0104 C.3       1 <0>         0.1101
      3 H1          0.5180   -0.7343   -0.8632 H         1 <0>         0.0941
      4 C3          0.6932   -0.7320    1.2636 C.ar      1 <0>        -0.0496
      5 C4         -0.0724   -0.8641    2.4070 C.ar      1 <0>        -0.0713
      6 C5          0.5040   -1.3253    3.5755 C.ar      1 <0>        -0.0831
      7 C6          1.8466   -1.6547    3.6017 C.ar      1 <0>        -0.1476
      8 C7          2.6130   -1.5230    2.4593 C.ar      1 <0>        -0.0834
      9 C8          2.0352   -1.0668    1.2876 C.ar      1 <0>        -0.0283
     10 Cl1         2.9958   -0.9074   -0.1496 Cl        1 <0>        -0.0435
     11 C9          2.4744   -2.1570    4.8763 C.3       1 <0>         0.0504
     12 N1          2.3662   -3.6210    4.9316 N.4       1 <0>        -0.4796
     13 C10         2.9782   -4.1106    6.1741 C.3       1 <0>        -0.0864
     14 C11         4.2074   -5.0129    6.0483 C.3       1 <0>        -0.1538
     15 C12         2.8635   -5.6060    6.4765 C.3       1 <0>        -0.1533
     16 O1         -1.3386   -0.4987    0.0122 O.3       1 <0>        -0.2606
     17 C13        -1.9649   -0.6067   -1.1879 C.2       1 <0>         0.1808
     18 C14        -1.2942   -0.3504   -2.3536 C.2       1 <0>        -0.1910
     19 C15        -1.9771   -0.4741   -3.5570 C.2       1 <0>        -0.0806
     20 S1         -3.6073   -0.9651   -3.0209 S.3       1 <0>         0.1684
     21 C16        -3.3053   -0.9869   -1.2617 C.2       1 <0>        -0.2462
     22 C17        -4.1957   -1.3053   -0.2129 C.2       1 <0>         0.6065
     23 O2         -3.8142   -1.2651    0.9436 O.2       1 <0>        -0.5121
     24 N2         -5.4676   -1.6537   -0.4912 N.am      1 <0>        -0.8473
     25 C18        -1.4839   -0.2557   -4.9220 C.2       1 <0>         0.0704
     26 C19        -0.1846    0.0268   -5.2952 C.2       1 <0>         0.1138
     27 N3         -0.1495    0.1535   -6.6166 N.pl3     1 <0>        -0.4959
     28 C20        -1.3665   -0.0338   -7.1169 C.cat     1 <0>         0.3085
     29 N4         -2.2259   -0.2983   -6.0835 N.pl3     1 <0>        -0.3218
     30 C21        -3.5462   -0.5360   -6.3236 C.2       1 <0>         0.0774
     31 C22        -4.0301   -0.5185   -7.5848 C.2       1 <0>        -0.0945
     32 C23        -3.1747   -0.2547   -8.6657 C.2       1 <0>        -0.0120
     33 C24        -1.8553   -0.0074   -8.4368 C.2       1 <0>        -0.1147
     34 H2          1.3627    1.4846   -0.1480 H         1 <0>         0.0844
     35 H3         -0.1623    1.6427   -1.0523 H         1 <0>         0.0742
     36 H4         -0.1610    1.7842    0.7221 H         1 <0>         0.0816
     37 H5         -1.1210   -0.6066    2.3873 H         1 <0>         0.1591
     38 H6         -0.0944   -1.4280    4.4687 H         1 <0>         0.1451
     39 H7          3.6618   -1.7801    2.4799 H         1 <0>         0.1477
     40 H8          3.5254   -1.8691    4.9016 H         1 <0>         0.1429
     41 H9          1.9578   -1.7219    5.7318 H         1 <0>         0.1446
     42 H10         1.3933   -3.8874    4.9081 H         1 <0>         0.4290
     43 H11         2.9430   -3.4222    7.0185 H         1 <0>         0.1802
     44 H12         4.5619   -5.2433    5.0437 H         1 <0>         0.1207
     45 H13         4.9813   -4.9182    6.8100 H         1 <0>         0.1354
     46 H14         2.7534   -5.9015    7.5199 H         1 <0>         0.1359
     47 H15         2.3341   -6.2266    5.7535 H         1 <0>         0.1210
     48 H16        -0.2548   -0.0574   -2.3379 H         1 <0>         0.1615
     49 H17        -5.7713   -1.6857   -1.4119 H         1 <0>         0.3981
     50 H18        -6.0793   -1.8724    0.2291 H         1 <0>         0.4166
     51 H19         0.6580    0.1276   -4.6272 H         1 <0>         0.2350
     52 H20        -4.2117   -0.7407   -5.4980 H         1 <0>         0.1892
     53 H21        -5.0784   -0.7085   -7.7618 H         1 <0>         0.1905
     54 H22        -3.5623   -0.2416   -9.6737 H         1 <0>         0.1828
     55 H23        -1.1877    0.1952   -9.2613 H         1 <0>         0.1871
     56 H24         2.8444   -4.0237    4.1397 H         1 <0>         0.4247
     57 H25         0.6439    0.3532   -7.1377 H         1 <0>         0.4696
@<TRIPOS>BOND
     1    1    2 1
     2    1   34 1
     3    1   35 1
     4    1   36 1
     5    2    3 1
     6    2    4 1
     7    2   16 1
     8    4    9 ar
     9    4    5 ar
    10    5    6 ar
    11    5   37 1
    12    6    7 ar
    13    6   38 1
    14    7    8 ar
    15    7   11 1
    16    8    9 ar
    17    8   39 1
    18    9   10 1
    19   11   12 1
    20   11   40 1
    21   11   41 1
    22   12   13 1
    23   12   42 1
    24   12   56 1
    25   13   15 1
    26   13   14 1
    27   13   43 1
    28   14   15 1
    29   14   44 1
    30   14   45 1
    31   15   46 1
    32   15   47 1
    33   16   17 1
    34   17   21 2
    35   17   18 1
    36   18   19 2
    37   18   48 1
    38   19   20 1
    39   19   25 1
    40   20   21 1
    41   21   22 1
    42   22   23 2
    43   22   24 am
    44   24   49 1
    45   24   50 1
    46   25   29 1
    47   25   26 2
    48   26   27 1
    49   26   51 1
    50   27   28 2
    51   27   57 1
    52   28   33 1
    53   28   29 1
    54   29   30 1
    55   30   31 2
    56   30   52 1
    57   31   32 1
    58   31   53 1
    59   32   33 2
    60   32   54 1
    61   33   55 1
@<TRIPOS>MOLECULE
CHEMBL1094488
   53    57     0     0     0
SMALL
USER_CHARGES

@<TRIPOS>ATOM
      1 C1         -0.8020    1.6213   -0.1230 C.3       1 <0>         0.0868
      2 N1         -0.7554    0.1580   -0.0699 N.pl3     1 <0>        -0.2379
      3 C2         -0.5515   -0.6498   -1.1280 C.2       1 <0>         0.0320
      4 C3         -0.5565   -1.9444   -0.6532 C.2       1 <0>        -0.1032
      5 C4         -0.7944   -1.8418    0.7175 C.2       1 <0>        -0.0146
      6 N2         -0.8981   -0.5515    0.9993 N.2       1 <0>        -0.2473
      7 C5         -0.9050   -2.9611    1.6755 C.2       1 <0>         0.6123
      8 O1         -0.7856   -4.1071    1.2877 O.2       1 <0>        -0.5291
      9 N3         -1.1384   -2.7117    2.9792 N.am      1 <0>        -0.8410
     10 C6         -0.3204   -3.1307   -1.5419 C.3       1 <0>        -0.0500
     11 C7         -0.8489   -2.8377   -2.9463 C.3       1 <0>        -0.0643
     12 C8         -0.4505   -1.4769   -3.4385 C.ar      1 <0>        -0.2142
     13 C9         -0.3257   -0.3906   -2.5602 C.ar      1 <0>         0.2904
     14 N4         -0.0100    0.8063   -3.0312 N.ar      1 <0>        -0.5573
     15 C10         0.2101    0.9735   -4.3287 C.ar      1 <0>         0.5642
     16 N5          0.1240   -0.0362   -5.1827 N.ar      1 <0>        -0.5473
     17 C11        -0.2003   -1.2557   -4.7797 C.ar      1 <0>         0.1970
     18 N6          0.5373    2.2336   -4.8022 N.pl3     1 <0>        -0.6339
     19 C12         0.6499    2.4560   -6.1779 C.ar      1 <0>         0.1719
     20 C13        -0.1488    1.7459   -7.0655 C.ar      1 <0>        -0.1133
     21 C14        -0.0354    1.9683   -8.4236 C.ar      1 <0>        -0.1012
     22 C15         0.8724    2.8965   -8.9005 C.ar      1 <0>        -0.1342
     23 C16         1.6691    3.6046   -8.0199 C.ar      1 <0>        -0.0932
     24 C17         1.5563    3.3914   -6.6598 C.ar      1 <0>        -0.1072
     25 C18         2.4203    4.1685   -5.7003 C.3       1 <0>        -0.0377
     26 C19         3.6497    3.3634   -5.3662 C.ar      1 <0>        -0.0758
     27 C20         3.6347    2.4918   -4.2934 C.ar      1 <0>        -0.1109
     28 C21         4.7623    1.7533   -3.9870 C.ar      1 <0>        -0.1178
     29 C22         5.9049    1.8861   -4.7537 C.ar      1 <0>        -0.1216
     30 C23         5.9196    2.7571   -5.8271 C.ar      1 <0>        -0.1170
     31 C24         4.7905    3.4924   -6.1361 C.ar      1 <0>        -0.1118
     32 H1          0.2006    2.0224    0.0249 H         1 <0>         0.0916
     33 H2         -1.1802    1.9377   -1.0951 H         1 <0>         0.1039
     34 H3         -1.4613    1.9925    0.6616 H         1 <0>         0.0990
     35 H4         -1.2337   -1.7974    3.2886 H         1 <0>         0.4079
     36 H5         -1.2111   -3.4466    3.6082 H         1 <0>         0.4083
     37 H6          0.7484   -3.3384   -1.5928 H         1 <0>         0.0828
     38 H7         -0.8384   -3.9984   -1.1334 H         1 <0>         0.1029
     39 H8         -0.4596   -3.5890   -3.6333 H         1 <0>         0.0893
     40 H9         -1.9368   -2.9037   -2.9344 H         1 <0>         0.0817
     41 H10        -0.2687   -2.0664   -5.4900 H         1 <0>         0.1770
     42 H11         0.6883    2.9617   -4.1792 H         1 <0>         0.4199
     43 H12        -0.8573    1.0205   -6.6938 H         1 <0>         0.1348
     44 H13        -0.6560    1.4166   -9.1142 H         1 <0>         0.1243
     45 H14         0.9593    3.0683   -9.9632 H         1 <0>         0.1229
     46 H15         2.3774    4.3281   -8.3956 H         1 <0>         0.1248
     47 H16         2.7171    5.1111   -6.1602 H         1 <0>         0.0874
     48 H17         1.8592    4.3703   -4.7878 H         1 <0>         0.0731
     49 H18         2.7420    2.3880   -3.6944 H         1 <0>         0.1134
     50 H19         4.7508    1.0729   -3.1484 H         1 <0>         0.1172
     51 H20         6.7861    1.3097   -4.5139 H         1 <0>         0.1208
     52 H21         6.8124    2.8611   -6.4259 H         1 <0>         0.1225
     53 H22         4.8008    4.1701   -6.9769 H         1 <0>         0.1217
@<TRIPOS>BOND
     1    1    2 1
     2    1   32 1
     3    1   33 1
     4    1   34 1
     5    2    6 1
     6    2    3 1
     7    3   13 1
     8    3    4 2
     9    4    5 1
    10    4   10 1
    11    5    6 2
    12    5    7 1
    13    7    8 2
    14    7    9 am
    15    9   35 1
    16    9   36 1
    17   10   11 1
    18   10   37 1
    19   10   38 1
    20   11   12 1
    21   11   39 1
    22   11   40 1
    23   12   17 ar
    24   12   13 ar
    25   13   14 ar
    26   14   15 ar
    27   15   16 ar
    28   15   18 1
    29   16   17 ar
    30   17   41 1
    31   18   19 1
    32   18   42 1
    33   19   24 ar
    34   19   20 ar
    35   20   21 ar
    36   20   43 1
    37   21   22 ar
    38   21   44 1
    39   22   23 ar
    40   22   45 1
    41   23   24 ar
    42   23   46 1
    43   24   25 1
    44   25   26 1
    45   25   47 1
    46   25   48 1
    47   26   31 ar
    48   26   27 ar
    49   27   28 ar
    50   27   49 1
    51   28   29 ar
    52   28   50 1
    53   29   30 ar
    54   29   51 1
    55   30   31 ar
    56   30   52 1
    57   31   53 1
@<TRIPOS>MOLECULE
CHEMBL1094820
   52    56     0     0     0
SMALL
USER_CHARGES

@<TRIPOS>ATOM
      1 C1          0.7142    1.6988    0.1165 C.3       1 <0>         0.0871
      2 N1          0.5771    0.2419    0.1863 N.pl3     1 <0>        -0.2383
      3 C2          0.2910   -0.5605   -0.8569 C.2       1 <0>         0.0312
      4 C3          0.2746   -1.8534   -0.3778 C.2       1 <0>        -0.1026
      5 C4          0.5412   -1.7523    0.9877 C.2       1 <0>        -0.0144
      6 N2          0.7176   -0.4671    1.2560 N.2       1 <0>        -0.2471
      7 C5          0.6177   -2.8690    1.9522 C.2       1 <0>         0.6124
      8 O1          0.4392   -4.0109    1.5754 O.2       1 <0>        -0.5289
      9 N3          0.8853   -2.6216    3.2497 N.am      1 <0>        -0.8410
     10 C6          0.0255   -3.0390   -1.2638 C.3       1 <0>        -0.0503
     11 C7         -0.9106   -2.6432   -2.4059 C.3       1 <0>        -0.0644
     12 C8         -0.5259   -1.3378   -3.0389 C.ar      1 <0>        -0.2147
     13 C9          0.0411   -0.3000   -2.2848 C.ar      1 <0>         0.2914
     14 N4          0.3341    0.8538   -2.8652 N.ar      1 <0>        -0.5581
     15 C10         0.1128    1.0207   -4.1626 C.ar      1 <0>         0.5641
     16 N5         -0.3995    0.0529   -4.9092 N.ar      1 <0>        -0.5482
     17 C11        -0.7270   -1.1205   -4.3890 C.ar      1 <0>         0.1965
     18 N6          0.4241    2.2353   -4.7508 N.pl3     1 <0>        -0.6316
     19 C12         0.3213    2.3879   -6.1393 C.ar      1 <0>         0.1059
     20 C13         0.4064    1.2798   -6.9689 C.ar      1 <0>        -0.0875
     21 C14         0.3042    1.4326   -8.3391 C.ar      1 <0>        -0.1408
     22 C15         0.1175    2.6885   -8.8869 C.ar      1 <0>        -0.0959
     23 C16         0.0320    3.7987   -8.0678 C.ar      1 <0>        -0.1664
     24 C17         0.1272    3.6540   -6.6915 C.ar      1 <0>         0.1682
     25 N7          0.0346    4.7759   -5.8597 N.pl3     1 <0>        -0.6894
     26 C18        -0.3116    6.0176   -6.3977 C.ar      1 <0>         0.1698
     27 C19        -1.3205    6.1075   -7.3486 C.ar      1 <0>        -0.1521
     28 C20        -1.6602    7.3367   -7.8784 C.ar      1 <0>        -0.0939
     29 C21        -0.9973    8.4773   -7.4636 C.ar      1 <0>        -0.1423
     30 C22         0.0075    8.3915   -6.5173 C.ar      1 <0>        -0.0927
     31 C23         0.3484    7.1663   -5.9790 C.ar      1 <0>        -0.1543
     32 H1          1.7508    1.9562   -0.1011 H         1 <0>         0.0916
     33 H2          0.0702    2.0870   -0.6727 H         1 <0>         0.1031
     34 H3          0.4237    2.1373    1.0711 H         1 <0>         0.0991
     35 H4          1.0278   -1.7104    3.5504 H         1 <0>         0.4079
     36 H5          0.9355   -3.3547    3.8829 H         1 <0>         0.4084
     37 H6          0.9721   -3.3889   -1.6757 H         1 <0>         0.0834
     38 H7         -0.4322   -3.8378   -0.6802 H         1 <0>         0.1030
     39 H8         -0.8886   -3.4238   -3.1663 H         1 <0>         0.0901
     40 H9         -1.9256   -2.5609   -2.0172 H         1 <0>         0.0819
     41 H10        -1.1454   -1.8974   -5.0117 H         1 <0>         0.1788
     42 H11         0.7133    2.9804   -4.2011 H         1 <0>         0.4156
     43 H12         0.5529    0.2975   -6.5445 H         1 <0>         0.1524
     44 H13         0.3707    0.5686   -8.9836 H         1 <0>         0.1246
     45 H14         0.0387    2.8023   -9.9580 H         1 <0>         0.1243
     46 H15        -0.1131    4.7781   -8.4991 H         1 <0>         0.1347
     47 H16         0.2108    4.6911   -4.9096 H         1 <0>         0.4021
     48 H17        -1.8384    5.2171   -7.6733 H         1 <0>         0.1292
     49 H18        -2.4441    7.4073   -8.6179 H         1 <0>         0.1260
     50 H19        -1.2647    9.4373   -7.8798 H         1 <0>         0.1235
     51 H20         0.5232    9.2842   -6.1955 H         1 <0>         0.1254
     52 H21         1.1302    7.1005   -5.2368 H         1 <0>         0.1228
@<TRIPOS>BOND
     1    1    2 1
     2    1   32 1
     3    1   33 1
     4    1   34 1
     5    2    6 1
     6    2    3 1
     7    3   13 1
     8    3    4 2
     9    4    5 1
    10    4   10 1
    11    5    6 2
    12    5    7 1
    13    7    8 2
    14    7    9 am
    15    9   35 1
    16    9   36 1
    17   10   11 1
    18   10   37 1
    19   10   38 1
    20   11   12 1
    21   11   39 1
    22   11   40 1
    23   12   17 ar
    24   12   13 ar
    25   13   14 ar
    26   14   15 ar
    27   15   16 ar
    28   15   18 1
    29   16   17 ar
    30   17   41 1
    31   18   19 1
    32   18   42 1
    33   19   24 ar
    34   19   20 ar
    35   20   21 ar
    36   20   43 1
    37   21   22 ar
    38   21   44 1
    39   22   23 ar
    40   22   45 1
    41   23   24 ar
    42   23   46 1
    43   24   25 1
    44   25   26 1
    45   25   47 1
    46   26   31 ar
    47   26   27 ar
    48   27   28 ar
    49   27   48 1
    50   28   29 ar
    51   28   49 1
    52   29   30 ar
    53   29   50 1
    54   30   31 ar
    55   30   51 1
    56   31   52 1
@<TRIPOS>MOLECULE
CHEMBL1095716
   63    67     0     0     0
SMALL
USER_CHARGES

@<TRIPOS>ATOM
      1 C1         -0.5743    1.6923    0.0674 C.3       1 <0>        -0.2006
      2 C2         -0.2271    0.2263    0.0288 C.2       1 <0>         0.3990
      3 O1          0.9355   -0.1218    0.0168 O.2       1 <0>        -0.4690
      4 C3         -1.2914   -0.7772    0.0059 C.ar      1 <0>        -0.2498
      5 C4         -2.6333   -0.3838    0.1147 C.ar      1 <0>         0.0003
      6 C5         -3.6239   -1.3198    0.0928 C.ar      1 <0>        -0.2199
      7 C6         -3.3139   -2.6742   -0.0377 C.ar      1 <0>         0.2515
      8 C7         -1.9911   -3.0834   -0.1463 C.ar      1 <0>        -0.2056
      9 C8         -0.9738   -2.1429   -0.1314 C.ar      1 <0>         0.2789
     10 N1          0.3514   -2.5445   -0.2457 N.pl3     1 <0>        -0.6240
     11 C9          0.6851   -3.6060   -1.0723 C.ar      1 <0>         0.5594
     12 N2         -0.2783   -4.2623   -1.7029 N.ar      1 <0>        -0.5592
     13 C10        -0.0105   -5.2934   -2.4899 C.ar      1 <0>         0.1905
     14 C11         1.3042   -5.6841   -2.6624 C.ar      1 <0>        -0.2079
     15 C12         2.2991   -4.9494   -2.0018 C.ar      1 <0>         0.2982
     16 N3          1.9611   -3.9370   -1.2174 N.ar      1 <0>        -0.5470
     17 C13         3.6999   -5.3225   -2.2631 C.2       1 <0>         0.0227
     18 C14         4.0111   -6.1534   -3.3180 C.2       1 <0>        -0.0995
     19 C15         5.3967   -6.3129   -3.2756 C.2       1 <0>        -0.0134
     20 N4          5.8414   -5.5862   -2.2612 N.2       1 <0>        -0.2410
     21 N5          4.8620   -4.9906   -1.6674 N.pl3     1 <0>        -0.2361
     22 C16         4.9941   -4.0898   -0.5197 C.3       1 <0>         0.0792
     23 C17         6.2138   -7.1375   -4.1894 C.2       1 <0>         0.6115
     24 O2          5.6804   -7.7614   -5.0862 O.2       1 <0>        -0.5292
     25 N6          7.5506   -7.1982   -4.0289 N.am      1 <0>        -0.8393
     26 C18         2.9718   -6.6933   -4.2567 C.3       1 <0>        -0.0519
     27 C19         1.6478   -6.8724   -3.5127 C.3       1 <0>        -0.0647
     28 N7         -4.3333   -3.6178   -0.0587 N.pl3     1 <0>        -0.6352
     29 C20        -4.0317   -5.0576   -0.0470 C.3       1 <0>         0.0972
     30 C21        -4.8641   -5.7193    1.0562 C.3       1 <0>        -0.0234
     31 N8         -6.2831   -5.3990    0.8562 N.4       1 <0>        -0.3841
     32 C22        -6.4966   -3.9547    1.0127 C.3       1 <0>        -0.0233
     33 C23        -5.7452   -3.2056   -0.0870 C.3       1 <0>         0.0954
     34 C24        -7.0909   -6.1219    1.8475 C.3       1 <0>        -0.0473
     35 H1          0.3420    2.2825    0.0801 H         1 <0>         0.0880
     36 H2         -1.1604    1.9502   -0.8147 H         1 <0>         0.0945
     37 H3         -1.1556    1.9045    0.9647 H         1 <0>         0.0949
     38 H4         -2.8820    0.6623    0.2164 H         1 <0>         0.1411
     39 H5         -4.6555   -1.0113    0.1773 H         1 <0>         0.1298
     40 H6         -1.7561   -4.1328   -0.2464 H         1 <0>         0.1491
     41 H7          1.0431   -2.0821    0.2529 H         1 <0>         0.4373
     42 H8         -0.8087   -5.8221   -2.9898 H         1 <0>         0.1764
     43 H9          4.9277   -4.6654    0.4035 H         1 <0>         0.0891
     44 H10         5.9586   -3.5840   -0.5640 H         1 <0>         0.1026
     45 H11         4.1942   -3.3497   -0.5448 H         1 <0>         0.1123
     46 H12         7.9762   -6.7005   -3.3133 H         1 <0>         0.4085
     47 H13         8.0870   -7.7397   -4.6288 H         1 <0>         0.4099
     48 H14         2.8321   -5.9960   -5.0828 H         1 <0>         0.0846
     49 H15         3.3012   -7.6560   -4.6475 H         1 <0>         0.1055
     50 H16         1.7174   -7.7541   -2.8757 H         1 <0>         0.0832
     51 H17         0.8518   -7.0273   -4.2411 H         1 <0>         0.0896
     52 H18        -4.2898   -5.4937   -1.0121 H         1 <0>         0.0922
     53 H19        -2.9711   -5.2080    0.1543 H         1 <0>         0.1277
     54 H20        -4.7264   -6.7999    1.0168 H         1 <0>         0.1421
     55 H21        -4.5409   -5.3469    2.0282 H         1 <0>         0.1327
     56 H22        -7.5618   -3.7349    0.9412 H         1 <0>         0.1429
     57 H23        -6.1240   -3.6356    1.9861 H         1 <0>         0.1331
     58 H24        -5.8169   -2.1321    0.0880 H         1 <0>         0.1305
     59 H25        -6.1792   -3.4515   -1.0561 H         1 <0>         0.0915
     60 H26        -6.7881   -5.8225    2.8509 H         1 <0>         0.1217
     61 H27        -8.1445   -5.8849    1.7001 H         1 <0>         0.1258
     62 H28        -6.9394   -7.1946    1.7272 H         1 <0>         0.1254
     63 H29        -6.5626   -5.6805   -0.0716 H         1 <0>         0.4253
@<TRIPOS>BOND
     1    1    2 1
     2    1   35 1
     3    1   36 1
     4    1   37 1
     5    2    3 2
     6    2    4 1
     7    4    9 ar
     8    4    5 ar
     9    5    6 ar
    10    5   38 1
    11    6    7 ar
    12    6   39 1
    13    7    8 ar
    14    7   28 1
    15    8    9 ar
    16    8   40 1
    17    9   10 1
    18   10   11 1
    19   10   41 1
    20   11   16 ar
    21   11   12 ar
    22   12   13 ar
    23   13   14 ar
    24   13   42 1
    25   14   27 1
    26   14   15 ar
    27   15   16 ar
    28   15   17 1
    29   17   21 1
    30   17   18 2
    31   18   19 1
    32   18   26 1
    33   19   20 2
    34   19   23 1
    35   20   21 1
    36   21   22 1
    37   22   43 1
    38   22   44 1
    39   22   45 1
    40   23   24 2
    41   23   25 am
    42   25   46 1
    43   25   47 1
    44   26   27 1
    45   26   48 1
    46   26   49 1
    47   27   50 1
    48   27   51 1
    49   28   33 1
    50   28   29 1
    51   29   30 1
    52   29   52 1
    53   29   53 1
    54   30   31 1
    55   30   54 1
    56   30   55 1
    57   31   32 1
    58   31   34 1
    59   31   63 1
    60   32   33 1
    61   32   56 1
    62   32   57 1
    63   33   58 1
    64   33   59 1
    65   34   60 1
    66   34   61 1
    67   34   62 1
@<TRIPOS>MOLECULE
CHEMBL1095716__1
   62    66     0     0     0
SMALL
USER_CHARGES

@<TRIPOS>ATOM
      1 C1         -0.5996    1.7016    0.0800 C.3       1 <0>        -0.1985
      2 C2         -0.2361    0.2397    0.0390 C.2       1 <0>         0.4029
      3 O1          0.9303   -0.0956    0.0331 O.2       1 <0>        -0.4828
      4 C3         -1.2892   -0.7753    0.0063 C.ar      1 <0>        -0.2746
      5 C4         -2.6359   -0.3970    0.1082 C.ar      1 <0>         0.0007
      6 C5         -3.6161   -1.3438    0.0771 C.ar      1 <0>        -0.2302
      7 C6         -3.2904   -2.6943   -0.0561 C.ar      1 <0>         0.2755
      8 C7         -1.9626   -3.0886   -0.1580 C.ar      1 <0>        -0.2197
      9 C8         -0.9558   -2.1371   -0.1337 C.ar      1 <0>         0.2762
     10 N1          0.3744   -2.5237   -0.2414 N.pl3     1 <0>        -0.6223
     11 C9          0.7244   -3.5801   -1.0678 C.ar      1 <0>         0.5625
     12 N2         -0.2284   -4.2477   -1.7026 N.ar      1 <0>        -0.5500
     13 C10         0.0552   -5.2746   -2.4896 C.ar      1 <0>         0.1957
     14 C11         1.3753   -5.6486   -2.6577 C.ar      1 <0>        -0.2151
     15 C12         2.3585   -4.9022   -1.9926 C.ar      1 <0>         0.2902
     16 N3          2.0050   -3.8949   -1.2085 N.ar      1 <0>        -0.5515
     17 C13         3.7649   -5.2574   -2.2491 C.2       1 <0>         0.0321
     18 C14         4.0904   -6.0833   -3.3037 C.2       1 <0>        -0.1031
     19 C15         5.4777   -6.2254   -3.2563 C.2       1 <0>        -0.0162
     20 N4          5.9095   -5.4942   -2.2395 N.2       1 <0>        -0.2470
     21 N5          4.9205   -4.9116   -1.6488 N.pl3     1 <0>        -0.2370
     22 C16         5.0371   -4.0104   -0.4997 C.3       1 <0>         0.0797
     23 C17         6.3084   -7.0388   -4.1679 C.2       1 <0>         0.6129
     24 O2          5.7861   -7.6684   -5.0673 O.2       1 <0>        -0.5298
     25 N6          7.6452   -7.0830   -4.0025 N.am      1 <0>        -0.8411
     26 C18         3.0614   -6.6352   -4.2467 C.3       1 <0>        -0.0499
     27 C19         1.7370   -6.8316   -3.5079 C.3       1 <0>        -0.0634
     28 N7         -4.2993   -3.6489   -0.0864 N.pl3     1 <0>        -0.6154
     29 C20        -3.9805   -5.0847   -0.0782 C.3       1 <0>         0.1234
     30 C21        -4.7969   -5.7583    1.0300 C.3       1 <0>         0.0382
     31 N8         -6.2192   -5.4389    0.8489 N.3       1 <0>        -0.5421
     32 C22        -6.4627   -3.9964    0.9824 C.3       1 <0>         0.0376
     33 C23        -5.7147   -3.2506   -0.1215 C.3       1 <0>         0.1205
     34 C24        -7.0537   -6.2026    1.7862 C.3       1 <0>         0.0241
     35 H1          0.3101    2.3018    0.1003 H         1 <0>         0.0825
     36 H2         -1.1830    1.9559   -0.8049 H         1 <0>         0.0921
     37 H3         -1.1888    1.9045    0.9743 H         1 <0>         0.0925
     38 H4         -2.8967    0.6459    0.2120 H         1 <0>         0.1339
     39 H5         -4.6514   -1.0469    0.1564 H         1 <0>         0.1290
     40 H6         -1.7154   -4.1350   -0.2602 H         1 <0>         0.1481
     41 H7          1.0582   -2.0544    0.2617 H         1 <0>         0.4343
     42 H8         -0.7343   -5.8127   -2.9930 H         1 <0>         0.1768
     43 H9          4.9745   -4.5877    0.4227 H         1 <0>         0.0884
     44 H10         5.9953   -3.4925   -0.5399 H         1 <0>         0.1002
     45 H11         4.2281   -3.2803   -0.5270 H         1 <0>         0.1139
     46 H12         8.0620   -6.5806   -3.2849 H         1 <0>         0.4080
     47 H13         8.1907   -7.6170   -4.6010 H         1 <0>         0.4081
     48 H14         2.9160   -5.9389   -5.0727 H         1 <0>         0.0830
     49 H15         3.4042   -7.5933   -4.6373 H         1 <0>         0.1027
     50 H16         1.8152   -7.7130   -2.8714 H         1 <0>         0.0814
     51 H17         0.9457   -6.9957   -4.2393 H         1 <0>         0.0890
     52 H18        -4.2398   -5.5229   -1.0419 H         1 <0>         0.0755
     53 H19        -2.9167   -5.2225    0.1155 H         1 <0>         0.0887
     54 H20        -4.6573   -6.8382    0.9794 H         1 <0>         0.0877
     55 H21        -4.4628   -5.3931    2.0011 H         1 <0>         0.0387
     56 H22        -7.5312   -3.7985    0.8974 H         1 <0>         0.0886
     57 H23        -6.1054   -3.6557    1.9542 H         1 <0>         0.0391
     58 H24        -5.7970   -2.1764    0.0436 H         1 <0>         0.0913
     59 H25        -6.1439   -3.5091   -1.0895 H         1 <0>         0.0756
     60 H26        -6.7681   -5.9580    2.8093 H         1 <0>         0.0262
     61 H27        -8.1019   -5.9471    1.6306 H         1 <0>         0.0712
     62 H28        -6.9104   -7.2694    1.6141 H         1 <0>         0.0713
@<TRIPOS>BOND
     1    1    2 1
     2    1   35 1
     3    1   36 1
     4    1   37 1
     5    2    3 2
     6    2    4 1
     7    4    9 ar
     8    4    5 ar
     9    5    6 ar
    10    5   38 1
    11    6    7 ar
    12    6   39 1
    13    7    8 ar
    14    7   28 1
    15    8    9 ar
    16    8   40 1
    17    9   10 1
    18   10   11 1
    19   10   41 1
    20   11   16 ar
    21   11   12 ar
    22   12   13 ar
    23   13   14 ar
    24   13   42 1
    25   14   27 1
    26   14   15 ar
    27   15   16 ar
    28   15   17 1
    29   17   21 1
    30   17   18 2
    31   18   19 1
    32   18   26 1
    33   19   20 2
    34   19   23 1
    35   20   21 1
    36   21   22 1
    37   22   43 1
    38   22   44 1
    39   22   45 1
    40   23   24 2
    41   23   25 am
    42   25   46 1
    43   25   47 1
    44   26   27 1
    45   26   48 1
    46   26   49 1
    47   27   50 1
    48   27   51 1
    49   28   33 1
    50   28   29 1
    51   29   30 1
    52   29   52 1
    53   29   53 1
    54   30   31 1
    55   30   54 1
    56   30   55 1
    57   31   32 1
    58   31   34 1
    59   32   33 1
    60   32   56 1
    61   32   57 1
    62   33   58 1
    63   33   59 1
    64   34   60 1
    65   34   61 1
    66   34   62 1
@<TRIPOS>MOLECULE
CHEMBL1095717
   62    66     0     0     0
SMALL
USER_CHARGES

@<TRIPOS>ATOM
      1 C1          0.1466    1.6643    0.0543 C.3       1 <0>         0.0867
      2 N1         -0.5646    0.3836    0.0700 N.pl3     1 <0>        -0.2375
      3 C2         -1.0502   -0.2465   -1.0168 C.2       1 <0>         0.0257
      4 C3         -1.6229   -1.4219   -0.5785 C.2       1 <0>        -0.1008
      5 C4         -1.4631   -1.4247    0.8073 C.2       1 <0>        -0.0130
      6 N2         -0.8155   -0.3140    1.1269 N.2       1 <0>        -0.2439
      7 C5         -1.9251   -2.4714    1.7421 C.2       1 <0>         0.6115
      8 O1         -2.5083   -3.4503    1.3184 O.2       1 <0>        -0.5287
      9 N3         -1.7000   -2.3409    3.0645 N.am      1 <0>        -0.8399
     10 C6         -2.2414   -2.4169   -1.5166 C.3       1 <0>        -0.0510
     11 C7         -2.8351   -1.6898   -2.7233 C.3       1 <0>        -0.0654
     12 C8         -1.9073   -0.6510   -3.2828 C.ar      1 <0>        -0.2117
     13 C9         -1.0453    0.0807   -2.4528 C.ar      1 <0>         0.2970
     14 N4         -0.2664    1.0174   -2.9722 N.ar      1 <0>        -0.5547
     15 C10        -0.2844    1.2484   -4.2785 C.ar      1 <0>         0.5615
     16 N5         -1.0697    0.5594   -5.0942 N.ar      1 <0>        -0.5597
     17 C11        -1.8821   -0.3824   -4.6383 C.ar      1 <0>         0.1951
     18 N6          0.5363    2.2330   -4.8022 N.pl3     1 <0>        -0.6255
     19 C12         0.6240    2.4076   -6.1919 C.ar      1 <0>         0.1090
     20 C13         0.3456    1.3486   -7.0432 C.ar      1 <0>        -0.0453
     21 C14         0.4322    1.5195   -8.4116 C.ar      1 <0>        -0.1965
     22 C15         0.7980    2.7516   -8.9375 C.ar      1 <0>         0.2131
     23 C16         1.0775    3.8142   -8.0887 C.ar      1 <0>        -0.2528
     24 C17         0.9851    3.6461   -6.7172 C.ar      1 <0>         0.1424
     25 O2          1.2529    4.6870   -5.8841 O.3       1 <0>        -0.3139
     26 C18         1.6170    5.9277   -6.4924 C.3       1 <0>         0.0295
     27 N7          0.8854    2.9222  -10.3237 N.pl3     1 <0>        -0.6434
     28 C19         1.3868    4.1789  -10.9010 C.3       1 <0>         0.1004
     29 C20         2.4736    3.8424  -11.9274 C.3       1 <0>        -0.0230
     30 N8          1.9384    2.8940  -12.9124 N.4       1 <0>        -0.3837
     31 C21         1.6087    1.6231  -12.2551 C.3       1 <0>        -0.0235
     32 C22         0.4843    1.8476  -11.2448 C.3       1 <0>         0.0993
     33 C23         2.9434    2.6566  -13.9572 C.3       1 <0>        -0.0471
     34 H1          1.2151    1.4850   -0.0652 H         1 <0>         0.0920
     35 H2         -0.2152    2.2707   -0.7760 H         1 <0>         0.1032
     36 H3         -0.0309    2.1899    0.9926 H         1 <0>         0.1002
     37 H4         -1.2347   -1.5598    3.4025 H         1 <0>         0.4082
     38 H5         -2.0033   -3.0281    3.6782 H         1 <0>         0.4095
     39 H6         -1.4789   -3.1184   -1.8552 H         1 <0>         0.0837
     40 H7         -3.0299   -2.9623   -0.9980 H         1 <0>         0.1045
     41 H8         -3.0565   -2.4204   -3.5013 H         1 <0>         0.0901
     42 H9         -3.7644   -1.2065   -2.4215 H         1 <0>         0.0833
     43 H10        -2.5170   -0.9326   -5.3170 H         1 <0>         0.1784
     44 H11         1.0507    2.8020   -4.2085 H         1 <0>         0.4275
     45 H12         0.0613    0.3895   -6.6361 H         1 <0>         0.1624
     46 H13         0.2154    0.6937   -9.0730 H         1 <0>         0.1274
     47 H14         1.3626    4.7722   -8.4978 H         1 <0>         0.1324
     48 H15         2.5194    5.7895   -7.0879 H         1 <0>         0.0548
     49 H16         0.8059    6.2687   -7.1358 H         1 <0>         0.0565
     50 H17         1.8033    6.6714   -5.7176 H         1 <0>         0.1057
     51 H18         0.5701    4.7078  -11.3923 H         1 <0>         0.0874
     52 H19         1.8084    4.8019  -10.1121 H         1 <0>         0.1225
     53 H20         2.7891    4.7540  -12.4348 H         1 <0>         0.1404
     54 H21         3.3277    3.3951  -11.4190 H         1 <0>         0.1324
     55 H22         1.2869    0.8994  -13.0039 H         1 <0>         0.1417
     56 H23         2.4889    1.2429  -11.7367 H         1 <0>         0.1325
     57 H24         0.3095    0.9299  -10.6831 H         1 <0>         0.1291
     58 H25        -0.4250    2.1370  -11.7715 H         1 <0>         0.0876
     59 H26         3.8454    2.2429  -13.5063 H         1 <0>         0.1216
     60 H27         2.5473    1.9527  -14.6891 H         1 <0>         0.1255
     61 H28         3.1832    3.5981  -14.4513 H         1 <0>         0.1248
     62 H29         1.1059    3.2804  -13.3316 H         1 <0>         0.4247
@<TRIPOS>BOND
     1    1    2 1
     2    1   34 1
     3    1   35 1
     4    1   36 1
     5    2    6 1
     6    2    3 1
     7    3   13 1
     8    3    4 2
     9    4    5 1
    10    4   10 1
    11    5    6 2
    12    5    7 1
    13    7    8 2
    14    7    9 am
    15    9   37 1
    16    9   38 1
    17   10   11 1
    18   10   39 1
    19   10   40 1
    20   11   12 1
    21   11   41 1
    22   11   42 1
    23   12   17 ar
    24   12   13 ar
    25   13   14 ar
    26   14   15 ar
    27   15   16 ar
    28   15   18 1
    29   16   17 ar
    30   17   43 1
    31   18   19 1
    32   18   44 1
    33   19   24 ar
    34   19   20 ar
    35   20   21 ar
    36   20   45 1
    37   21   22 ar
    38   21   46 1
    39   22   23 ar
    40   22   27 1
    41   23   24 ar
    42   23   47 1
    43   24   25 1
    44   25   26 1
    45   26   48 1
    46   26   49 1
    47   26   50 1
    48   27   32 1
    49   27   28 1
    50   28   29 1
    51   28   51 1
    52   28   52 1
    53   29   30 1
    54   29   53 1
    55   29   54 1
    56   30   31 1
    57   30   33 1
    58   30   62 1
    59   31   32 1
    60   31   55 1
    61   31   56 1
    62   32   57 1
    63   32   58 1
    64   33   59 1
    65   33   60 1
    66   33   61 1
@<TRIPOS>MOLECULE
CHEMBL1095717__1
   61    65     0     0     0
SMALL
USER_CHARGES

@<TRIPOS>ATOM
      1 C1          0.1468    1.6640    0.0543 C.3       1 <0>         0.0869
      2 N1         -0.5640    0.3831    0.0699 N.pl3     1 <0>        -0.2380
      3 C2         -1.0494   -0.2471   -1.0168 C.2       1 <0>         0.0334
      4 C3         -1.6217   -1.4226   -0.5786 C.2       1 <0>        -0.1042
      5 C4         -1.4619   -1.4254    0.8072 C.2       1 <0>        -0.0156
      6 N2         -0.8146   -0.3146    1.1269 N.2       1 <0>        -0.2486
      7 C5         -1.9236   -2.4723    1.7420 C.2       1 <0>         0.6126
      8 O1         -2.5065   -3.4514    1.3183 O.2       1 <0>        -0.5296
      9 N3         -1.6985   -2.3418    3.0644 N.am      1 <0>        -0.8414
     10 C6         -2.2399   -2.4178   -1.5167 C.3       1 <0>        -0.0497
     11 C7         -2.8339   -1.6908   -2.7233 C.3       1 <0>        -0.0626
     12 C8         -1.9064   -0.6518   -3.2828 C.ar      1 <0>        -0.2225
     13 C9         -1.0446    0.0802   -2.4529 C.ar      1 <0>         0.2923
     14 N4         -0.2660    1.0171   -2.9722 N.ar      1 <0>        -0.5596
     15 C10        -0.2841    1.2482   -4.2786 C.ar      1 <0>         0.5657
     16 N5         -1.0692    0.5589   -5.0942 N.ar      1 <0>        -0.5554
     17 C11        -1.8813   -0.3831   -4.6384 C.ar      1 <0>         0.1977
     18 N6          0.5363    2.2330   -4.8022 N.pl3     1 <0>        -0.6199
     19 C12         0.6240    2.4076   -6.1919 C.ar      1 <0>         0.0761
     20 C13         0.3460    1.3484   -7.0431 C.ar      1 <0>        -0.0384
     21 C14         0.4326    1.5194   -8.4116 C.ar      1 <0>        -0.2118
     22 C15         0.7980    2.7516   -8.9375 C.ar      1 <0>         0.2424
     23 C16         1.0771    3.8143   -8.0887 C.ar      1 <0>        -0.2686
     24 C17         0.9847    3.6462   -6.7172 C.ar      1 <0>         0.1463
     25 O2          1.2522    4.6872   -5.8841 O.3       1 <0>        -0.3195
     26 C18         1.6158    5.9281   -6.4925 C.3       1 <0>         0.0306
     27 N7          0.8854    2.9222  -10.3237 N.pl3     1 <0>        -0.6288
     28 C19         0.4784    1.8491  -11.2435 C.3       1 <0>         0.1263
     29 C20        -0.4932    2.4339  -12.2742 C.3       1 <0>         0.0381
     30 N8          0.1241    3.6018  -12.9167 N.3       1 <0>        -0.5424
     31 C21         0.3796    4.6723  -11.9437 C.3       1 <0>         0.0381
     32 C22         1.3811    4.1815  -10.8995 C.3       1 <0>         0.1261
     33 C23        -0.7019    4.0883  -14.0298 C.3       1 <0>         0.0243
     34 H1          1.2154    1.4851   -0.0653 H         1 <0>         0.0919
     35 H2         -0.2152    2.2704   -0.7760 H         1 <0>         0.1045
     36 H3         -0.0308    2.1896    0.9926 H         1 <0>         0.0983
     37 H4         -1.2334   -1.5606    3.4025 H         1 <0>         0.4079
     38 H5         -2.0016   -3.0291    3.6781 H         1 <0>         0.4080
     39 H6         -1.4772   -3.1191   -1.8553 H         1 <0>         0.0826
     40 H7         -3.0282   -2.9635   -0.9981 H         1 <0>         0.1017
     41 H8         -3.0551   -2.4216   -3.5013 H         1 <0>         0.0882
     42 H9         -3.7633   -1.2079   -2.4216 H         1 <0>         0.0800
     43 H10        -2.5160   -0.9335   -5.3170 H         1 <0>         0.1761
     44 H11         1.0505    2.8022   -4.2085 H         1 <0>         0.4242
     45 H12         0.0620    0.3893   -6.6361 H         1 <0>         0.1558
     46 H13         0.2161    0.6935   -9.0730 H         1 <0>         0.1271
     47 H14         1.3619    4.7724   -8.4978 H         1 <0>         0.1320
     48 H15         1.8019    6.6718   -5.7177 H         1 <0>         0.1000
     49 H16         2.5183    5.7901   -7.0879 H         1 <0>         0.0560
     50 H17         0.8046    6.2688   -7.1359 H         1 <0>         0.0548
     51 H18         1.3560    1.4506  -11.7525 H         1 <0>         0.0709
     52 H19        -0.0159    1.0550  -10.6838 H         1 <0>         0.0891
     53 H20        -0.7195    1.6808  -13.0290 H         1 <0>         0.0868
     54 H21        -1.4135    2.7374  -11.7752 H         1 <0>         0.0390
     55 H22         0.7862    5.5426  -12.4588 H         1 <0>         0.0859
     56 H23        -0.5529    4.9446  -11.4493 H         1 <0>         0.0378
     57 H24         1.4835    4.9287  -10.1126 H         1 <0>         0.0830
     58 H25         2.3472    4.0115  -11.3748 H         1 <0>         0.0707
     59 H26        -1.6847    4.3743  -13.6549 H         1 <0>         0.0259
     60 H27        -0.2218    4.9531  -14.4876 H         1 <0>         0.0701
     61 H28        -0.8122    3.2983  -14.7726 H         1 <0>         0.0712
@<TRIPOS>BOND
     1    1    2 1
     2    1   34 1
     3    1   35 1
     4    1   36 1
     5    2    6 1
     6    2    3 1
     7    3   13 1
     8    3    4 2
     9    4    5 1
    10    4   10 1
    11    5    6 2
    12    5    7 1
    13    7    8 2
    14    7    9 am
    15    9   37 1
    16    9   38 1
    17   10   11 1
    18   10   39 1
    19   10   40 1
    20   11   12 1
    21   11   41 1
    22   11   42 1
    23   12   17 ar
    24   12   13 ar
    25   13   14 ar
    26   14   15 ar
    27   15   16 ar
    28   15   18 1
    29   16   17 ar
    30   17   43 1
    31   18   19 1
    32   18   44 1
    33   19   24 ar
    34   19   20 ar
    35   20   21 ar
    36   20   45 1
    37   21   22 ar
    38   21   46 1
    39   22   23 ar
    40   22   27 1
    41   23   24 ar
    42   23   47 1
    43   24   25 1
    44   25   26 1
    45   26   48 1
    46   26   49 1
    47   26   50 1
    48   27   32 1
    49   27   28 1
    50   28   29 1
    51   28   51 1
    52   28   52 1
    53   29   30 1
    54   29   53 1
    55   29   54 1
    56   30   31 1
    57   30   33 1
    58   31   32 1
    59   31   55 1
    60   31   56 1
    61   32   57 1
    62   32   58 1
    63   33   59 1
    64   33   60 1
    65   33   61 1
@<TRIPOS>MOLECULE
CHEMBL1094408
   62    66     0     0     0
SMALL
USER_CHARGES

@<TRIPOS>ATOM
      1 C1          0.0280    1.1038   -0.0577 C.3       1 <0>         0.0862
      2 N1          0.7835   -0.1512   -0.0345 N.pl3     1 <0>        -0.2368
      3 C2          1.2848   -0.7741   -1.1183 C.2       1 <0>         0.0233
      4 C3          1.9409   -1.9003   -0.6679 C.2       1 <0>        -0.1001
      5 C4          1.7732   -1.9052    0.7170 C.2       1 <0>        -0.0127
      6 N2          1.0739   -0.8239    1.0284 N.2       1 <0>        -0.2422
      7 C5          2.2840   -2.9218    1.6595 C.2       1 <0>         0.6112
      8 O1          2.9205   -3.8706    1.2439 O.2       1 <0>        -0.5290
      9 N3          2.0445   -2.7974    2.9799 N.am      1 <0>        -0.8394
     10 C6          2.6653   -2.8356   -1.5916 C.3       1 <0>        -0.0520
     11 C7          1.9706   -2.8582   -2.9533 C.3       1 <0>        -0.0643
     12 C8          1.6241   -1.4832   -3.4453 C.ar      1 <0>        -0.2117
     13 C9          1.2621   -0.4598   -2.5570 C.ar      1 <0>         0.2994
     14 N4          0.9247    0.7321   -3.0254 N.ar      1 <0>        -0.5525
     15 C10         0.9505    0.9653   -4.3312 C.ar      1 <0>         0.5639
     16 N5          1.3106    0.0280   -5.1962 N.ar      1 <0>        -0.5606
     17 C11         1.6470   -1.1890   -4.7955 C.ar      1 <0>         0.1918
     18 N6          0.5923    2.2177   -4.8015 N.pl3     1 <0>        -0.6275
     19 C12         0.6747    2.5016   -6.1704 C.ar      1 <0>         0.1841
     20 C13         0.4057    1.5105   -7.1026 C.ar      1 <0>        -0.1464
     21 C14         0.4877    1.7952   -8.4585 C.ar      1 <0>         0.1793
     22 C15         0.8392    3.0707   -8.8806 C.ar      1 <0>        -0.1627
     23 C16         1.1079    4.0588   -7.9520 C.ar      1 <0>        -0.1427
     24 C17         1.0213    3.7812   -6.5979 C.ar      1 <0>         0.0684
     25 O2          1.2802    4.7569   -5.6851 O.3       1 <0>        -0.3185
     26 C18         1.6295    6.0455   -6.1944 C.3       1 <0>         0.0285
     27 N7          0.2167    0.7966   -9.4005 N.pl3     1 <0>        -0.6423
     28 C19        -0.2961   -0.5176   -8.9834 C.3       1 <0>         0.1029
     29 C20        -1.5309   -0.8477   -9.8284 C.3       1 <0>        -0.0239
     30 N8         -1.1869   -0.7557  -11.2529 N.4       1 <0>        -0.3833
     31 C21        -0.8335    0.6282  -11.5936 C.3       1 <0>        -0.0233
     32 C22         0.4306    1.0333  -10.8366 C.3       1 <0>         0.1008
     33 C23        -2.3384   -1.1783  -12.0612 C.3       1 <0>        -0.0471
     34 H1          0.7164    1.9440    0.0325 H         1 <0>         0.0931
     35 H2         -0.5188    1.1813   -0.9975 H         1 <0>         0.1027
     36 H3         -0.6758    1.1196    0.7745 H         1 <0>         0.1007
     37 H4          1.5366   -2.0404    3.3115 H         1 <0>         0.4084
     38 H5          2.3799   -3.4648    3.5987 H         1 <0>         0.4099
     39 H6          3.6943   -2.4981   -1.7152 H         1 <0>         0.0842
     40 H7          2.6624   -3.8392   -1.1664 H         1 <0>         0.1050
     41 H8          2.6303   -3.3359   -3.6777 H         1 <0>         0.0890
     42 H9          1.0554   -3.4447   -2.8724 H         1 <0>         0.0825
     43 H10         1.9357   -1.9413   -5.5145 H         1 <0>         0.1753
     44 H11         0.2844    2.8983   -4.1827 H         1 <0>         0.4299
     45 H12         0.1331    0.5186   -6.7738 H         1 <0>         0.1534
     46 H13         0.9030    3.2909   -9.9360 H         1 <0>         0.1260
     47 H14         1.3813    5.0499   -8.2828 H         1 <0>         0.1376
     48 H15         2.5320    5.9643   -6.8003 H         1 <0>         0.0569
     49 H16         0.8133    6.4273   -6.8077 H         1 <0>         0.0569
     50 H17         1.8098    6.7278   -5.3637 H         1 <0>         0.1039
     51 H18         0.4698   -1.2768   -9.1419 H         1 <0>         0.0875
     52 H19        -0.5715   -0.4856   -7.9292 H         1 <0>         0.1246
     53 H20        -1.8676   -1.8590   -9.6004 H         1 <0>         0.1398
     54 H21        -2.3274   -0.1393   -9.6003 H         1 <0>         0.1315
     55 H22        -0.6562    0.7044  -12.6664 H         1 <0>         0.1404
     56 H23        -1.6510    1.2919  -11.3121 H         1 <0>         0.1317
     57 H24         0.6353    2.0903  -11.0071 H         1 <0>         0.1260
     58 H25         1.2711    0.4335  -11.1855 H         1 <0>         0.0867
     59 H26        -3.1886   -0.5298  -11.8494 H         1 <0>         0.1211
     60 H27        -2.0843   -1.1104  -13.1190 H         1 <0>         0.1249
     61 H28        -2.5968   -2.2082  -11.8149 H         1 <0>         0.1248
     62 H29        -0.4025   -1.3596  -11.4479 H         1 <0>         0.4247
@<TRIPOS>BOND
     1    1    2 1
     2    1   34 1
     3    1   35 1
     4    1   36 1
     5    2    6 1
     6    2    3 1
     7    3   13 1
     8    3    4 2
     9    4    5 1
    10    4   10 1
    11    5    6 2
    12    5    7 1
    13    7    8 2
    14    7    9 am
    15    9   37 1
    16    9   38 1
    17   10   11 1
    18   10   39 1
    19   10   40 1
    20   11   12 1
    21   11   41 1
    22   11   42 1
    23   12   17 ar
    24   12   13 ar
    25   13   14 ar
    26   14   15 ar
    27   15   16 ar
    28   15   18 1
    29   16   17 ar
    30   17   43 1
    31   18   19 1
    32   18   44 1
    33   19   24 ar
    34   19   20 ar
    35   20   21 ar
    36   20   45 1
    37   21   22 ar
    38   21   27 1
    39   22   23 ar
    40   22   46 1
    41   23   24 ar
    42   23   47 1
    43   24   25 1
    44   25   26 1
    45   26   48 1
    46   26   49 1
    47   26   50 1
    48   27   32 1
    49   27   28 1
    50   28   29 1
    51   28   51 1
    52   28   52 1
    53   29   30 1
    54   29   53 1
    55   29   54 1
    56   30   31 1
    57   30   33 1
    58   30   62 1
    59   31   32 1
    60   31   55 1
    61   31   56 1
    62   32   57 1
    63   32   58 1
    64   33   59 1
    65   33   60 1
    66   33   61 1
@<TRIPOS>MOLECULE
CHEMBL550475
   60    64     0     0     0
SMALL
USER_CHARGES

@<TRIPOS>ATOM
      1 C1          0.2924    1.2790   -0.1308 C.3       1 <0>        -0.1783
      2 C2          0.0646   -0.2292   -0.0104 C.3       1 <0>         0.1065
      3 H1          0.5180   -0.7343   -0.8632 H         1 <0>         0.0974
      4 C3          0.6932   -0.7320    1.2636 C.ar      1 <0>        -0.0395
      5 C4         -0.0724   -0.8641    2.4070 C.ar      1 <0>        -0.0701
      6 C5          0.5040   -1.3253    3.5755 C.ar      1 <0>        -0.0846
      7 C6          1.8466   -1.6547    3.6017 C.ar      1 <0>        -0.1551
      8 C7          2.6130   -1.5230    2.4593 C.ar      1 <0>        -0.0898
      9 C8          2.0352   -1.0668    1.2876 C.ar      1 <0>        -0.0286
     10 Cl1         2.9958   -0.9074   -0.1496 Cl        1 <0>        -0.0354
     11 C9          2.4744   -2.1570    4.8763 C.3       1 <0>         0.0462
     12 N1          2.3662   -3.6210    4.9316 N.4       1 <0>        -0.3867
     13 C10         2.8827   -4.1048    6.2214 C.3       1 <0>        -0.0227
     14 C11         2.5342   -5.5873    6.3672 C.3       1 <0>         0.0826
     15 N2          2.9539   -6.3164    5.1729 N.am      1 <0>        -0.7236
     16 C12         3.2303   -5.7055    4.0152 C.2       1 <0>         0.5054
     17 O1          3.5496   -6.3832    3.0615 O.2       1 <0>        -0.4870
     18 C13         3.1607   -4.2140    3.8487 C.3       1 <0>        -0.0219
     19 O2         -1.3386   -0.4987    0.0122 O.3       1 <0>        -0.2666
     20 C14        -1.9649   -0.6067   -1.1879 C.2       1 <0>         0.2040
     21 C15        -1.2942   -0.3504   -2.3536 C.2       1 <0>        -0.2560
     22 C16        -1.9771   -0.4741   -3.5570 C.2       1 <0>         0.0182
     23 S1         -3.6073   -0.9651   -3.0209 S.3       1 <0>         0.1150
     24 C17        -3.3053   -0.9869   -1.2617 C.2       1 <0>        -0.2976
     25 C18        -4.1957   -1.3053   -0.2129 C.2       1 <0>         0.6166
     26 O3         -3.8142   -1.2651    0.9436 O.2       1 <0>        -0.5329
     27 N3         -5.4676   -1.6537   -0.4912 N.am      1 <0>        -0.8536
     28 C19        -1.4839   -0.2557   -4.9220 C.2       1 <0>        -0.0402
     29 C20        -0.1846    0.0268   -5.2952 C.2       1 <0>         0.1113
     30 N4         -0.1495    0.1535   -6.6166 N.2       1 <0>        -0.4839
     31 C21        -1.3665   -0.0338   -7.1169 C.2       1 <0>         0.2505
     32 N5         -2.2259   -0.2983   -6.0835 N.pl3     1 <0>        -0.3474
     33 C22        -3.5462   -0.5360   -6.3236 C.2       1 <0>         0.0485
     34 C23        -4.0301   -0.5185   -7.5848 C.2       1 <0>        -0.1215
     35 C24        -3.1747   -0.2547   -8.6657 C.2       1 <0>        -0.0861
     36 C25        -1.8553   -0.0074   -8.4368 C.2       1 <0>        -0.0780
     37 H2          1.3627    1.4846   -0.1480 H         1 <0>         0.0808
     38 H3         -0.1623    1.6427   -1.0523 H         1 <0>         0.0787
     39 H4         -0.1610    1.7842    0.7221 H         1 <0>         0.0764
     40 H5         -1.1210   -0.6066    2.3873 H         1 <0>         0.1600
     41 H6         -0.0944   -1.4280    4.4687 H         1 <0>         0.1429
     42 H7          3.6618   -1.7801    2.4799 H         1 <0>         0.1457
     43 H8          3.5254   -1.8691    4.9016 H         1 <0>         0.1435
     44 H9          1.9578   -1.7219    5.7318 H         1 <0>         0.1494
     45 H10         3.9650   -3.9792    6.2518 H         1 <0>         0.1428
     46 H11         2.4244   -3.5402    7.0334 H         1 <0>         0.1571
     47 H12         3.0456   -5.9955    7.2389 H         1 <0>         0.1297
     48 H13         1.4574   -5.6950    6.4974 H         1 <0>         0.1005
     49 H14         3.0357   -7.2818    5.2213 H         1 <0>         0.4272
     50 H15         2.6977   -3.9787    2.8903 H         1 <0>         0.1643
     51 H16         4.1689   -3.8004    3.8719 H         1 <0>         0.1644
     52 H17        -0.2548   -0.0574   -2.3379 H         1 <0>         0.1553
     53 H18        -5.7713   -1.6857   -1.4119 H         1 <0>         0.3981
     54 H19        -6.0793   -1.8724    0.2291 H         1 <0>         0.4093
     55 H20         0.6580    0.1276   -4.6272 H         1 <0>         0.1909
     56 H21        -4.2117   -0.7407   -5.4980 H         1 <0>         0.1600
     57 H22        -5.0784   -0.7085   -7.7618 H         1 <0>         0.1615
     58 H23        -3.5623   -0.2416   -9.6737 H         1 <0>         0.1540
     59 H24        -1.1877    0.1952   -9.2613 H         1 <0>         0.1620
     60 H25         1.3998   -3.8925    4.8295 H         1 <0>         0.4306
@<TRIPOS>BOND
     1    1    2 1
     2    1   37 1
     3    1   38 1
     4    1   39 1
     5    2    3 1
     6    2    4 1
     7    2   19 1
     8    4    9 ar
     9    4    5 ar
    10    5    6 ar
    11    5   40 1
    12    6    7 ar
    13    6   41 1
    14    7    8 ar
    15    7   11 1
    16    8    9 ar
    17    8   42 1
    18    9   10 1
    19   11   12 1
    20   11   43 1
    21   11   44 1
    22   12   18 1
    23   12   13 1
    24   12   60 1
    25   13   14 1
    26   13   45 1
    27   13   46 1
    28   14   15 1
    29   14   47 1
    30   14   48 1
    31   15   16 am
    32   15   49 1
    33   16   17 2
    34   16   18 1
    35   18   50 1
    36   18   51 1
    37   19   20 1
    38   20   24 2
    39   20   21 1
    40   21   22 2
    41   21   52 1
    42   22   23 1
    43   22   28 1
    44   23   24 1
    45   24   25 1
    46   25   26 2
    47   25   27 am
    48   27   53 1
    49   27   54 1
    50   28   32 1
    51   28   29 2
    52   29   30 1
    53   29   55 1
    54   30   31 2
    55   31   36 1
    56   31   32 1
    57   32   33 1
    58   33   34 2
    59   33   56 1
    60   34   35 1
    61   34   57 1
    62   35   36 2
    63   35   58 1
    64   36   59 1
@<TRIPOS>MOLECULE
CHEMBL550475__1
   61    65     0     0     0
SMALL
USER_CHARGES

@<TRIPOS>ATOM
      1 C1         -0.2902    1.2714   -0.1875 C.3       1 <0>        -0.1807
      2 C2         -0.0343   -0.2303   -0.0452 C.3       1 <0>         0.1095
      3 H1         -0.9866   -0.7594   -0.0096 H         1 <0>         0.0945
      4 C3          0.7673   -0.7173   -1.2248 C.ar      1 <0>        -0.0484
      5 C4          2.1431   -0.8146   -1.1329 C.ar      1 <0>        -0.0697
      6 C5          2.8784   -1.2613   -2.2147 C.ar      1 <0>        -0.0822
      7 C6          2.2384   -1.6110   -3.3893 C.ar      1 <0>        -0.1476
      8 C7          0.8630   -1.5141   -3.4824 C.ar      1 <0>        -0.0881
      9 C8          0.1259   -1.0724   -2.3978 C.ar      1 <0>        -0.0268
     10 Cl1        -1.6025   -0.9568   -2.5117 Cl        1 <0>        -0.0411
     11 C9          3.0409   -2.0974   -4.5685 C.3       1 <0>         0.0435
     12 N1          3.1796   -3.5581   -4.4973 N.4       1 <0>        -0.3867
     13 C10         4.0504   -4.0240   -5.5878 C.3       1 <0>        -0.0231
     14 C11         4.3880   -5.4977   -5.3537 C.3       1 <0>         0.0818
     15 N2          3.1625   -6.2570   -5.1175 N.am      1 <0>        -0.7222
     16 C12         2.0067   -5.6737   -4.7802 C.2       1 <0>         0.5052
     17 O1          1.0384   -6.3752   -4.5776 O.2       1 <0>        -0.4885
     18 C13         1.8598   -4.1850   -4.6419 C.3       1 <0>        -0.0216
     19 O2          0.6932   -0.4774    1.1597 O.3       1 <0>        -0.2607
     20 C14        -0.0301   -0.5996    2.3025 C.2       1 <0>         0.1810
     21 C15        -1.3810   -0.3771    2.3036 C.2       1 <0>        -0.1912
     22 C16        -2.0785   -0.5142    3.4970 C.2       1 <0>        -0.0801
     23 S1         -0.7874   -0.9690    4.6426 S.3       1 <0>         0.1684
     24 C17         0.5854   -0.9604    3.5015 C.2       1 <0>        -0.2463
     25 C18         1.9464   -1.2438    3.7495 C.2       1 <0>         0.6068
     26 O3          2.7561   -1.1864    2.8407 O.2       1 <0>        -0.5125
     27 N3          2.3497   -1.5778    4.9914 N.am      1 <0>        -0.8472
     28 C19        -3.5123   -0.3309    3.7516 C.2       1 <0>         0.0702
     29 C20        -4.4919   -0.0762    2.8120 C.2       1 <0>         0.1140
     30 N4         -5.6567    0.0235    3.4418 N.pl3     1 <0>        -0.4958
     31 C21        -5.4770   -0.1548    4.7465 C.cat     1 <0>         0.3086
     32 N5         -4.1462   -0.3851    4.9750 N.pl3     1 <0>        -0.3218
     33 C22        -3.6883   -0.6070    6.2393 C.2       1 <0>         0.0774
     34 C23        -4.5388   -0.6072    7.2889 C.2       1 <0>        -0.0945
     35 C24        -5.9088   -0.3784    7.0876 C.2       1 <0>        -0.0121
     36 C25        -6.3762   -0.1472    5.8296 C.2       1 <0>        -0.1147
     37 H2          0.6621    1.8005   -0.2230 H         1 <0>         0.0816
     38 H3         -0.8451    1.4599   -1.1065 H         1 <0>         0.0845
     39 H4         -0.8699    1.6236    0.6657 H         1 <0>         0.0744
     40 H5          2.6437   -0.5413   -0.2157 H         1 <0>         0.1598
     41 H6          3.9534   -1.3368   -2.1426 H         1 <0>         0.1458
     42 H7          0.3632   -1.7870   -4.4000 H         1 <0>         0.1479
     43 H8          2.5304   -1.8255   -5.4924 H         1 <0>         0.1453
     44 H9          4.0288   -1.6373   -4.5503 H         1 <0>         0.1515
     45 H10         3.5327   -3.9147   -6.5408 H         1 <0>         0.1440
     46 H11         4.9682   -3.4363   -5.5989 H         1 <0>         0.1585
     47 H12         4.8974   -5.8963   -6.2310 H         1 <0>         0.1317
     48 H13         5.0415   -5.5860   -4.4858 H         1 <0>         0.1015
     49 H14         3.1877   -7.2223   -5.2092 H         1 <0>         0.4284
     50 H15         1.2555   -3.9617   -3.7627 H         1 <0>         0.1621
     51 H16         1.3658   -3.7867   -5.5281 H         1 <0>         0.1646
     52 H17        -1.8942   -0.1002    1.3945 H         1 <0>         0.1616
     53 H18         1.7052   -1.6235    5.7148 H         1 <0>         0.3982
     54 H19         3.2846   -1.7725    5.1617 H         1 <0>         0.4166
     55 H20        -4.3371    0.0248    1.7479 H         1 <0>         0.2351
     56 H21        -2.6357   -0.7847    6.4036 H         1 <0>         0.1892
     57 H22        -4.1634   -0.7844    8.2860 H         1 <0>         0.1905
     58 H23        -6.5882   -0.3795    7.9271 H         1 <0>         0.1828
     59 H24        -7.4287    0.0285    5.6630 H         1 <0>         0.1871
     60 H25         3.5809   -3.8165   -3.6084 H         1 <0>         0.4303
     61 H26        -6.5093    0.2003    3.0144 H         1 <0>         0.4696
@<TRIPOS>BOND
     1    1    2 1
     2    1   37 1
     3    1   38 1
     4    1   39 1
     5    2    3 1
     6    2    4 1
     7    2   19 1
     8    4    9 ar
     9    4    5 ar
    10    5    6 ar
    11    5   40 1
    12    6    7 ar
    13    6   41 1
    14    7    8 ar
    15    7   11 1
    16    8    9 ar
    17    8   42 1
    18    9   10 1
    19   11   12 1
    20   11   43 1
    21   11   44 1
    22   12   18 1
    23   12   13 1
    24   12   60 1
    25   13   14 1
    26   13   45 1
    27   13   46 1
    28   14   15 1
    29   14   47 1
    30   14   48 1
    31   15   16 am
    32   15   49 1
    33   16   17 2
    34   16   18 1
    35   18   50 1
    36   18   51 1
    37   19   20 1
    38   20   24 2
    39   20   21 1
    40   21   22 2
    41   21   52 1
    42   22   23 1
    43   22   28 1
    44   23   24 1
    45   24   25 1
    46   25   26 2
    47   25   27 am
    48   27   53 1
    49   27   54 1
    50   28   32 1
    51   28   29 2
    52   29   30 1
    53   29   55 1
    54   30   31 2
    55   30   61 1
    56   31   36 1
    57   31   32 1
    58   32   33 1
    59   33   34 2
    60   33   56 1
    61   34   35 1
    62   34   57 1
    63   35   36 2
    64   35   58 1
    65   36   59 1
@<TRIPOS>MOLECULE
CHEMBL550475__2
   59    63     0     0     0
SMALL
USER_CHARGES

@<TRIPOS>ATOM
      1 C1         -0.2902    1.2714   -0.1875 C.3       1 <0>        -0.1753
      2 C2         -0.0343   -0.2303   -0.0452 C.3       1 <0>         0.1162
      3 H1         -0.9866   -0.7594   -0.0096 H         1 <0>         0.0906
      4 C3          0.7673   -0.7173   -1.2248 C.ar      1 <0>        -0.0785
      5 C4          2.1431   -0.8146   -1.1329 C.ar      1 <0>        -0.0750
      6 C5          2.8784   -1.2613   -2.2147 C.ar      1 <0>        -0.0894
      7 C6          2.2384   -1.6110   -3.3893 C.ar      1 <0>        -0.0685
      8 C7          0.8630   -1.5141   -3.4824 C.ar      1 <0>        -0.1064
      9 C8          0.1259   -1.0724   -2.3978 C.ar      1 <0>        -0.0245
     10 Cl1        -1.6025   -0.9568   -2.5117 Cl        1 <0>        -0.0641
     11 C9          3.0409   -2.0974   -4.5685 C.3       1 <0>         0.0931
     12 N1          3.1796   -3.5581   -4.4973 N.3       1 <0>        -0.5265
     13 C10         4.1305   -4.0475   -5.5087 C.3       1 <0>         0.0321
     14 C11         4.4724   -5.5056   -5.1964 C.3       1 <0>         0.1148
     15 N2          3.2476   -6.2760   -5.0012 N.am      1 <0>        -0.7199
     16 C12         2.0652   -5.7080   -4.7419 C.2       1 <0>         0.5254
     17 O1          1.1033   -6.4246   -4.5626 O.2       1 <0>        -0.5489
     18 C13         1.8783   -4.2192   -4.6635 C.3       1 <0>         0.0347
     19 O2          0.6932   -0.4774    1.1597 O.3       1 <0>        -0.2626
     20 C14        -0.0301   -0.5996    2.3025 C.2       1 <0>         0.2071
     21 C15        -1.3810   -0.3771    2.3036 C.2       1 <0>        -0.2456
     22 C16        -2.0785   -0.5142    3.4970 C.2       1 <0>         0.0077
     23 S1         -0.7874   -0.9690    4.6426 S.3       1 <0>         0.1014
     24 C17         0.5854   -0.9604    3.5015 C.2       1 <0>        -0.2957
     25 C18         1.9464   -1.2438    3.7495 C.2       1 <0>         0.6133
     26 O3          2.7561   -1.1864    2.8407 O.2       1 <0>        -0.5228
     27 N3          2.3497   -1.5778    4.9914 N.am      1 <0>        -0.8561
     28 C19        -3.5123   -0.3309    3.7516 C.2       1 <0>        -0.0303
     29 C20        -4.4919   -0.0762    2.8120 C.2       1 <0>         0.1075
     30 N4         -5.6567    0.0235    3.4418 N.2       1 <0>        -0.4845
     31 C21        -5.4770   -0.1548    4.7465 C.2       1 <0>         0.2453
     32 N5         -4.1462   -0.3851    4.9750 N.pl3     1 <0>        -0.3485
     33 C22        -3.6883   -0.6070    6.2393 C.2       1 <0>         0.0521
     34 C23        -4.5388   -0.6072    7.2889 C.2       1 <0>        -0.1266
     35 C24        -5.9088   -0.3784    7.0876 C.2       1 <0>        -0.0898
     36 C25        -6.3762   -0.1472    5.8296 C.2       1 <0>        -0.0780
     37 H2          0.6621    1.8005   -0.2230 H         1 <0>         0.0743
     38 H3         -0.8451    1.4599   -1.1065 H         1 <0>         0.0797
     39 H4         -0.8699    1.6236    0.6657 H         1 <0>         0.0702
     40 H5          2.6437   -0.5413   -0.2157 H         1 <0>         0.1468
     41 H6          3.9534   -1.3368   -2.1426 H         1 <0>         0.1340
     42 H7          0.3632   -1.7870   -4.4000 H         1 <0>         0.1337
     43 H8          2.5304   -1.8255   -5.4924 H         1 <0>         0.0534
     44 H9          4.0288   -1.6373   -4.5503 H         1 <0>         0.0968
     45 H10         3.6778   -3.9820   -6.4980 H         1 <0>         0.0496
     46 H11         5.0382   -3.4448   -5.4789 H         1 <0>         0.1010
     47 H12         5.0382   -5.9299   -6.0259 H         1 <0>         0.0838
     48 H13         5.0756   -5.5494   -4.2896 H         1 <0>         0.0770
     49 H14         3.2937   -7.2430   -5.0625 H         1 <0>         0.4025
     50 H15         1.2393   -3.9790   -3.8138 H         1 <0>         0.1162
     51 H16         1.4070   -3.8649   -5.5803 H         1 <0>         0.0743
     52 H17        -1.8942   -0.1002    1.3945 H         1 <0>         0.1566
     53 H18         1.7052   -1.6235    5.7148 H         1 <0>         0.3958
     54 H19         3.2846   -1.7725    5.1617 H         1 <0>         0.4078
     55 H20        -4.3371    0.0248    1.7479 H         1 <0>         0.1921
     56 H21        -2.6357   -0.7847    6.4036 H         1 <0>         0.1603
     57 H22        -4.1634   -0.7844    8.2860 H         1 <0>         0.1594
     58 H23        -6.5882   -0.3795    7.9271 H         1 <0>         0.1513
     59 H24        -7.4287    0.0285    5.6630 H         1 <0>         0.1598
@<TRIPOS>BOND
     1    1    2 1
     2    1   37 1
     3    1   38 1
     4    1   39 1
     5    2    3 1
     6    2    4 1
     7    2   19 1
     8    4    9 ar
     9    4    5 ar
    10    5    6 ar
    11    5   40 1
    12    6    7 ar
    13    6   41 1
    14    7    8 ar
    15    7   11 1
    16    8    9 ar
    17    8   42 1
    18    9   10 1
    19   11   12 1
    20   11   43 1
    21   11   44 1
    22   12   18 1
    23   12   13 1
    24   13   14 1
    25   13   45 1
    26   13   46 1
    27   14   15 1
    28   14   47 1
    29   14   48 1
    30   15   16 am
    31   15   49 1
    32   16   17 2
    33   16   18 1
    34   18   50 1
    35   18   51 1
    36   19   20 1
    37   20   24 2
    38   20   21 1
    39   21   22 2
    40   21   52 1
    41   22   23 1
    42   22   28 1
    43   23   24 1
    44   24   25 1
    45   25   26 2
    46   25   27 am
    47   27   53 1
    48   27   54 1
    49   28   32 1
    50   28   29 2
    51   29   30 1
    52   29   55 1
    53   30   31 2
    54   31   36 1
    55   31   32 1
    56   32   33 1
    57   33   34 2
    58   33   56 1
    59   34   35 1
    60   34   57 1
    61   35   36 2
    62   35   58 1
    63   36   59 1
@<TRIPOS>MOLECULE
CHEMBL493930
   63    67     0     0     0
SMALL
USER_CHARGES

@<TRIPOS>ATOM
      1 C1         -0.4613    1.8587    0.2676 C.3       1 <0>        -0.1766
      2 C2         -0.2835    0.3421    0.1709 C.3       1 <0>         0.1178
      3 H1         -1.2595   -0.1415    0.2125 H         1 <0>         0.0881
      4 C3          0.3928   -0.0024   -1.1310 C.ar      1 <0>        -0.0870
      5 C4          1.7635   -0.1761   -1.1732 C.ar      1 <0>        -0.0765
      6 C5          2.3839   -0.4921   -2.3672 C.ar      1 <0>        -0.1123
      7 C6          1.6341   -0.6346   -3.5200 C.ar      1 <0>        -0.0991
      8 C7          0.2637   -0.4611   -3.4791 C.ar      1 <0>        -0.1101
      9 C8         -0.3587   -0.1504   -2.2829 C.ar      1 <0>        -0.0268
     10 Cl1        -2.0809    0.0612   -2.2294 Cl        1 <0>        -0.0689
     11 O1          0.5208   -0.1136    1.2607 O.3       1 <0>        -0.2578
     12 C9         -0.1149   -0.3610    2.4346 C.2       1 <0>         0.1984
     13 C10        -1.4484   -0.0717    2.5887 C.2       1 <0>        -0.2238
     14 C11        -2.0540   -0.3361    3.7874 C.2       1 <0>         0.1009
     15 S1         -0.7156   -1.0186    4.7510 S.3       1 <0>         0.1491
     16 C12         0.5674   -0.9209    3.5135 C.2       1 <0>        -0.2688
     17 C13         1.9232   -1.3085    3.6046 C.2       1 <0>         0.6100
     18 O2          2.6635   -1.1647    2.6478 O.2       1 <0>        -0.5116
     19 N1          2.3973   -1.8372    4.7501 N.am      1 <0>        -0.8528
     20 N2         -3.3783   -0.1255    4.1605 N.pl3     1 <0>        -0.4106
     21 C14        -4.0908    1.0277    4.0017 C.2       1 <0>         0.2838
     22 N3         -5.2974    0.8733    4.4614 N.2       1 <0>        -0.4646
     23 C15        -5.4456   -0.3875    4.9473 C.ar      1 <0>         0.0295
     24 C16        -4.2197   -1.0478    4.7561 C.ar      1 <0>         0.0865
     25 C17        -4.0756   -2.3681    5.1559 C.ar      1 <0>        -0.1357
     26 C18        -5.1437   -3.0275    5.7384 C.ar      1 <0>         0.1399
     27 C19        -6.3576   -2.3724    5.9231 C.ar      1 <0>        -0.2050
     28 C20        -6.5099   -1.0694    5.5420 C.ar      1 <0>        -0.0132
     29 O3         -5.0068   -4.3216    6.1317 O.3       1 <0>        -0.2941
     30 C21        -6.1783   -4.9791    6.6188 C.3       1 <0>         0.0751
     31 C22        -6.3524   -4.6772    8.1100 C.3       1 <0>        -0.1795
     32 C23        -7.5624   -5.4475    8.6429 C.3       1 <0>        -0.0031
     33 N4         -7.3514   -6.8879    8.4552 N.4       1 <0>        -0.3878
     34 C24        -7.2553   -7.1947    7.0230 C.3       1 <0>        -0.0016
     35 C25        -6.0335   -6.4916    6.4278 C.3       1 <0>        -0.1456
     36 C26        -8.4795   -7.6266    9.0381 C.3       1 <0>        -0.0477
     37 H2          0.5146    2.3423    0.2260 H         1 <0>         0.0780
     38 H3         -1.0748    2.2063   -0.5636 H         1 <0>         0.0822
     39 H4         -0.9505    2.1079    1.2093 H         1 <0>         0.0673
     40 H5          2.3498   -0.0646   -0.2730 H         1 <0>         0.1455
     41 H6          3.4549   -0.6275   -2.3997 H         1 <0>         0.1344
     42 H7          2.1195   -0.8812   -4.4528 H         1 <0>         0.1363
     43 H8         -0.3219   -0.5722   -4.3797 H         1 <0>         0.1379
     44 H9         -2.0120    0.3593    1.7745 H         1 <0>         0.1613
     45 H10         1.8079   -1.9517    5.5119 H         1 <0>         0.3963
     46 H11         3.3280   -2.1033    4.8127 H         1 <0>         0.4116
     47 H12        -3.7084    1.9358    3.5594 H         1 <0>         0.2263
     48 H13        -3.1348   -2.8789    5.0131 H         1 <0>         0.1373
     49 H14        -7.1848   -2.8969    6.3781 H         1 <0>         0.1361
     50 H15        -7.4566   -0.5707    5.6888 H         1 <0>         0.1435
     51 H16        -7.0504   -4.6242    6.0696 H         1 <0>         0.0938
     52 H17        -5.4576   -4.9856    8.6507 H         1 <0>         0.1028
     53 H18        -6.5118   -3.6078    8.2486 H         1 <0>         0.1204
     54 H19        -7.6894   -5.2346    9.7043 H         1 <0>         0.1382
     55 H20        -8.4566   -5.1381    8.1017 H         1 <0>         0.1318
     56 H21        -7.1555   -8.2718    6.8885 H         1 <0>         0.1408
     57 H22        -8.1560   -6.8481    6.5164 H         1 <0>         0.1326
     58 H23        -5.9649   -6.7193    5.3640 H         1 <0>         0.1232
     59 H24        -5.1321   -6.8377    6.9336 H         1 <0>         0.1020
     60 H25        -9.4040   -7.3268    8.5444 H         1 <0>         0.1230
     61 H26        -8.3238   -8.6964    8.8992 H         1 <0>         0.1259
     62 H27        -8.5478   -7.4045   10.1030 H         1 <0>         0.1256
     63 H28        -6.4972   -7.1644    8.9154 H         1 <0>         0.4272
@<TRIPOS>BOND
     1    1    2 1
     2    1   37 1
     3    1   38 1
     4    1   39 1
     5    2    3 1
     6    2    4 1
     7    2   11 1
     8    4    9 ar
     9    4    5 ar
    10    5    6 ar
    11    5   40 1
    12    6    7 ar
    13    6   41 1
    14    7    8 ar
    15    7   42 1
    16    8    9 ar
    17    8   43 1
    18    9   10 1
    19   11   12 1
    20   12   16 2
    21   12   13 1
    22   13   14 2
    23   13   44 1
    24   14   15 1
    25   14   20 1
    26   15   16 1
    27   16   17 1
    28   17   18 2
    29   17   19 am
    30   19   45 1
    31   19   46 1
    32   20   24 1
    33   20   21 1
    34   21   22 2
    35   21   47 1
    36   22   23 1
    37   23   28 ar
    38   23   24 ar
    39   24   25 ar
    40   25   26 ar
    41   25   48 1
    42   26   27 ar
    43   26   29 1
    44   27   28 ar
    45   27   49 1
    46   28   50 1
    47   29   30 1
    48   30   35 1
    49   30   31 1
    50   30   51 1
    51   31   32 1
    52   31   52 1
    53   31   53 1
    54   32   33 1
    55   32   54 1
    56   32   55 1
    57   33   34 1
    58   33   36 1
    59   33   63 1
    60   34   35 1
    61   34   56 1
    62   34   57 1
    63   35   58 1
    64   35   59 1
    65   36   60 1
    66   36   61 1
    67   36   62 1
@<TRIPOS>MOLECULE
CHEMBL524020
   66    70     0     0     0
SMALL
USER_CHARGES

@<TRIPOS>ATOM
      1 C1         -0.4612    1.8577    0.2665 C.3       1 <0>        -0.1939
      2 C2         -0.2833    0.3411    0.1702 C.3       1 <0>         0.1029
      3 H1         -1.2592   -0.1426    0.2119 H         1 <0>         0.0902
      4 C3          0.3931   -0.0038   -1.1315 C.ar      1 <0>        -0.0439
      5 C4          1.7641   -0.1774   -1.1734 C.ar      1 <0>        -0.0898
      6 C5          2.3844   -0.4937   -2.3673 C.ar      1 <0>        -0.0829
      7 C6          1.6339   -0.6368   -3.5196 C.ar      1 <0>        -0.1127
      8 C7          0.2633   -0.4641   -3.4776 C.ar      1 <0>        -0.0715
      9 C8         -0.3578   -0.1519   -2.2824 C.ar      1 <0>        -0.1772
     10 C9         -1.8528    0.0312   -2.2355 C.3       1 <0>         0.5056
     11 F1         -2.3874   -0.1679   -3.5129 F         1 <0>        -0.1702
     12 F2         -2.4086   -0.8961   -1.3476 F         1 <0>        -0.1776
     13 F3         -2.1505    1.3278   -1.8024 F         1 <0>        -0.1712
     14 O1          0.5209   -0.1143    1.2602 O.3       1 <0>        -0.2553
     15 C10        -0.1149   -0.3615    2.4341 C.2       1 <0>         0.1977
     16 C11        -1.4484   -0.0723    2.5880 C.2       1 <0>        -0.2242
     17 C12        -2.0542   -0.3364    3.7867 C.2       1 <0>         0.1023
     18 S1         -0.7158   -1.0185    4.7506 S.3       1 <0>         0.1511
     19 C13         0.5674   -0.9210    3.5132 C.2       1 <0>        -0.2680
     20 C14         1.9231   -1.3085    3.6046 C.2       1 <0>         0.6103
     21 O2          2.6636   -1.1649    2.6478 O.2       1 <0>        -0.5122
     22 N1          2.3972   -1.8369    4.7502 N.am      1 <0>        -0.8524
     23 N2         -3.3785   -0.1259    4.1596 N.pl3     1 <0>        -0.4109
     24 C15        -4.0911    1.0272    4.0004 C.2       1 <0>         0.2839
     25 N3         -5.2978    0.8728    4.4600 N.2       1 <0>        -0.4641
     26 C16        -5.4458   -0.3878    4.9462 C.ar      1 <0>         0.0297
     27 C17        -4.2199   -1.0481    4.7554 C.ar      1 <0>         0.0864
     28 C18        -4.0756   -2.3682    5.1555 C.ar      1 <0>        -0.1356
     29 C19        -5.1438   -3.0276    5.7380 C.ar      1 <0>         0.1399
     30 C20        -6.3578   -2.3726    5.9224 C.ar      1 <0>        -0.2049
     31 C21        -6.5102   -1.0697    5.5410 C.ar      1 <0>        -0.0131
     32 O3         -5.0068   -4.3216    6.1317 O.3       1 <0>        -0.2941
     33 C22        -6.1783   -4.9791    6.6188 C.3       1 <0>         0.0751
     34 C23        -6.3524   -4.6772    8.1100 C.3       1 <0>        -0.1795
     35 C24        -7.5624   -5.4475    8.6429 C.3       1 <0>        -0.0031
     36 N4         -7.3514   -6.8879    8.4552 N.4       1 <0>        -0.3878
     37 C25        -7.2553   -7.1947    7.0230 C.3       1 <0>        -0.0016
     38 C26        -6.0335   -6.4916    6.4278 C.3       1 <0>        -0.1456
     39 C27        -8.4795   -7.6266    9.0381 C.3       1 <0>        -0.0477
     40 H2          0.5148    2.3413    0.2248 H         1 <0>         0.0791
     41 H3         -1.0746    2.2050   -0.5649 H         1 <0>         0.0985
     42 H4         -0.9504    2.1071    1.2080 H         1 <0>         0.0687
     43 H5          2.3503   -0.0656   -0.2733 H         1 <0>         0.1485
     44 H6          3.4554   -0.6287   -2.4002 H         1 <0>         0.1385
     45 H7          2.1188   -0.8833   -4.4527 H         1 <0>         0.1398
     46 H8         -0.3229   -0.5756   -4.3778 H         1 <0>         0.1430
     47 H9         -2.0120    0.3584    1.7736 H         1 <0>         0.1604
     48 H10         1.8077   -1.9512    5.5120 H         1 <0>         0.3965
     49 H11         3.3279   -2.1029    4.8130 H         1 <0>         0.4117
     50 H12        -3.7087    1.9352    3.5579 H         1 <0>         0.2264
     51 H13        -3.1348   -2.8790    5.0129 H         1 <0>         0.1372
     52 H14        -7.1850   -2.8971    6.3775 H         1 <0>         0.1362
     53 H15        -7.4569   -0.5710    5.6875 H         1 <0>         0.1436
     54 H16        -7.0504   -4.6242    6.0696 H         1 <0>         0.0939
     55 H17        -5.4576   -4.9856    8.6507 H         1 <0>         0.1027
     56 H18        -6.5118   -3.6078    8.2486 H         1 <0>         0.1204
     57 H19        -7.6894   -5.2346    9.7043 H         1 <0>         0.1382
     58 H20        -8.4566   -5.1381    8.1017 H         1 <0>         0.1318
     59 H21        -7.1555   -8.2718    6.8885 H         1 <0>         0.1408
     60 H22        -8.1560   -6.8481    6.5164 H         1 <0>         0.1327
     61 H23        -5.9649   -6.7193    5.3640 H         1 <0>         0.1233
     62 H24        -5.1321   -6.8377    6.9336 H         1 <0>         0.1019
     63 H25        -9.4040   -7.3268    8.5444 H         1 <0>         0.1230
     64 H26        -8.3238   -8.6964    8.8992 H         1 <0>         0.1259
     65 H27        -8.5478   -7.4045   10.1030 H         1 <0>         0.1256
     66 H28        -6.4972   -7.1644    8.9154 H         1 <0>         0.4271
@<TRIPOS>BOND
     1    1    2 1
     2    1   40 1
     3    1   41 1
     4    1   42 1
     5    2    3 1
     6    2    4 1
     7    2   14 1
     8    4    9 ar
     9    4    5 ar
    10    5    6 ar
    11    5   43 1
    12    6    7 ar
    13    6   44 1
    14    7    8 ar
    15    7   45 1
    16    8    9 ar
    17    8   46 1
    18    9   10 1
    19   10   11 1
    20   10   12 1
    21   10   13 1
    22   14   15 1
    23   15   19 2
    24   15   16 1
    25   16   17 2
    26   16   47 1
    27   17   18 1
    28   17   23 1
    29   18   19 1
    30   19   20 1
    31   20   21 2
    32   20   22 am
    33   22   48 1
    34   22   49 1
    35   23   27 1
    36   23   24 1
    37   24   25 2
    38   24   50 1
    39   25   26 1
    40   26   31 ar
    41   26   27 ar
    42   27   28 ar
    43   28   29 ar
    44   28   51 1
    45   29   30 ar
    46   29   32 1
    47   30   31 ar
    48   30   52 1
    49   31   53 1
    50   32   33 1
    51   33   38 1
    52   33   34 1
    53   33   54 1
    54   34   35 1
    55   34   55 1
    56   34   56 1
    57   35   36 1
    58   35   57 1
    59   35   58 1
    60   36   37 1
    61   36   39 1
    62   36   66 1
    63   37   38 1
    64   37   59 1
    65   37   60 1
    66   38   61 1
    67   38   62 1
    68   39   63 1
    69   39   64 1
    70   39   65 1
@<TRIPOS>MOLECULE
CHEMBL494123
   66    70     0     0     0
SMALL
USER_CHARGES

@<TRIPOS>ATOM
      1 C1          1.5176    0.0591    0.0588 C.3       1 <0>        -0.1777
      2 C2          1.0796   -1.4068    0.0728 C.3       1 <0>         0.1183
      3 H1          1.3989   -1.8902   -0.8505 H         1 <0>         0.0883
      4 C3          1.7078   -2.1075    1.2499 C.ar      1 <0>        -0.0880
      5 C4          1.0055   -2.2352    2.4337 C.ar      1 <0>        -0.0774
      6 C5          1.5815   -2.8778    3.5134 C.ar      1 <0>        -0.1126
      7 C6          2.8603   -3.3933    3.4101 C.ar      1 <0>        -0.0985
      8 C7          3.5633   -3.2663    2.2272 C.ar      1 <0>        -0.1095
      9 C8          2.9850   -2.6280    1.1441 C.ar      1 <0>        -0.0272
     10 Cl1         3.8650   -2.4738   -0.3443 Cl        1 <0>        -0.0670
     11 O1         -0.3436   -1.4777    0.1803 O.3       1 <0>        -0.2576
     12 C9         -1.0543   -1.3811   -0.9726 C.2       1 <0>         0.2051
     13 C10        -0.4297   -1.1099   -2.1650 C.2       1 <0>        -0.2296
     14 C11        -1.1805   -1.0207   -3.3060 C.2       1 <0>         0.1178
     15 S1         -2.8323   -1.3266   -2.7031 S.3       1 <0>         0.1260
     16 C12        -2.4366   -1.5604   -0.9779 C.2       1 <0>        -0.2755
     17 C13        -3.3006   -1.8498    0.1020 C.2       1 <0>         0.6100
     18 O2         -2.8491   -1.9752    1.2266 O.2       1 <0>        -0.5100
     19 N1         -4.6241   -1.9872   -0.1120 N.am      1 <0>        -0.8550
     20 N2         -0.7618   -0.7576   -4.6070 N.pl3     1 <0>        -0.4157
     21 C14         0.0499    0.2648   -5.0054 C.2       1 <0>         0.2767
     22 N3          0.2361    0.2112   -6.2913 N.2       1 <0>        -0.4583
     23 C15        -0.4413   -0.8471   -6.8095 C.ar      1 <0>         0.0280
     24 C16        -1.0859   -1.4869   -5.7369 C.ar      1 <0>         0.0843
     25 C17        -1.8563   -2.6169   -5.9676 C.ar      1 <0>        -0.2062
     26 C18        -1.9820   -3.1086   -7.2550 C.ar      1 <0>         0.1516
     27 C19        -1.3396   -2.4753   -8.3148 C.ar      1 <0>        -0.1400
     28 C20        -0.5852   -1.3563   -8.1023 C.ar      1 <0>        -0.0122
     29 O3         -2.7362   -4.2159   -7.4856 O.3       1 <0>        -0.2944
     30 C21        -3.4605   -4.7502   -6.3757 C.3       1 <0>         0.0764
     31 H2         -3.8015   -3.9307   -5.7430 H         1 <0>         0.0867
     32 C22        -2.5249   -5.6718   -5.5539 C.3       1 <0>        -0.1643
     33 C23        -3.1442   -5.9130   -4.2032 C.3       1 <0>        -0.1432
     34 C24        -4.0350   -7.1672   -4.1514 C.3       1 <0>        -0.0087
     35 N4         -4.9074   -7.3219   -5.3352 N.4       1 <0>        -0.3836
     36 C25        -5.4894   -6.0664   -5.7432 C.3       1 <0>        -0.0070
     37 C26        -4.6173   -5.4872   -6.8691 C.3       1 <0>        -0.1518
     38 C27        -5.9856   -8.2667   -5.0142 C.3       1 <0>        -0.0504
     39 H3          2.6031    0.1132   -0.0231 H         1 <0>         0.0834
     40 H4          1.0632    0.5659   -0.7926 H         1 <0>         0.0677
     41 H5          1.1983    0.5425    0.9821 H         1 <0>         0.0785
     42 H6          0.0068   -1.8324    2.5151 H         1 <0>         0.1448
     43 H7          1.0326   -2.9771    4.4382 H         1 <0>         0.1344
     44 H8          3.3100   -3.8950    4.2542 H         1 <0>         0.1367
     45 H9          4.5623   -3.6687    2.1467 H         1 <0>         0.1385
     46 H10         0.6404   -0.9684   -2.2020 H         1 <0>         0.1623
     47 H11        -4.9836   -1.8874   -1.0074 H         1 <0>         0.3946
     48 H12        -5.2173   -2.1860    0.6293 H         1 <0>         0.4111
     49 H13         0.4750    1.0096   -4.3489 H         1 <0>         0.2249
     50 H14        -2.3553   -3.1106   -5.1468 H         1 <0>         0.1303
     51 H15        -1.4440   -2.8681   -9.3154 H         1 <0>         0.1474
     52 H16        -0.0899   -0.8732   -8.9316 H         1 <0>         0.1500
     53 H17        -2.3999   -6.6219   -6.0733 H         1 <0>         0.0827
     54 H18        -1.5547   -5.1905   -5.4302 H         1 <0>         0.1008
     55 H19        -2.3468   -6.0206   -3.4678 H         1 <0>         0.1144
     56 H20        -3.7472   -5.0453   -3.9357 H         1 <0>         0.0877
     57 H21        -3.3954   -8.0463   -4.0722 H         1 <0>         0.1310
     58 H22        -4.6614   -7.1137   -3.2610 H         1 <0>         0.1315
     59 H23        -6.5029   -6.2311   -6.1089 H         1 <0>         0.1445
     60 H24        -5.5085   -5.3770   -4.8991 H         1 <0>         0.1343
     61 H25        -5.2276   -4.8170   -7.4745 H         1 <0>         0.1220
     62 H26        -4.2688   -6.3052   -7.4995 H         1 <0>         0.0988
     63 H27        -6.5675   -7.8829   -4.1763 H         1 <0>         0.1237
     64 H28        -6.6339   -8.3866   -5.8822 H         1 <0>         0.1270
     65 H29        -5.5553   -9.2316   -4.7460 H         1 <0>         0.1249
     66 H30        -4.3625   -7.6946   -6.0982 H         1 <0>         0.4241
@<TRIPOS>BOND
     1    1    2 1
     2    1   39 1
     3    1   40 1
     4    1   41 1
     5    2    3 1
     6    2    4 1
     7    2   11 1
     8    4    9 ar
     9    4    5 ar
    10    5    6 ar
    11    5   42 1
    12    6    7 ar
    13    6   43 1
    14    7    8 ar
    15    7   44 1
    16    8    9 ar
    17    8   45 1
    18    9   10 1
    19   11   12 1
    20   12   16 2
    21   12   13 1
    22   13   14 2
    23   13   46 1
    24   14   15 1
    25   14   20 1
    26   15   16 1
    27   16   17 1
    28   17   18 2
    29   17   19 am
    30   19   47 1
    31   19   48 1
    32   20   24 1
    33   20   21 1
    34   21   22 2
    35   21   49 1
    36   22   23 1
    37   23   28 ar
    38   23   24 ar
    39   24   25 ar
    40   25   26 ar
    41   25   50 1
    42   26   27 ar
    43   26   29 1
    44   27   28 ar
    45   27   51 1
    46   28   52 1
    47   29   30 1
    48   30   31 1
    49   30   37 1
    50   30   32 1
    51   32   33 1
    52   32   53 1
    53   32   54 1
    54   33   34 1
    55   33   55 1
    56   33   56 1
    57   34   35 1
    58   34   57 1
    59   34   58 1
    60   35   36 1
    61   35   38 1
    62   35   66 1
    63   36   37 1
    64   36   59 1
    65   36   60 1
    66   37   61 1
    67   37   62 1
    68   38   63 1
    69   38   64 1
    70   38   65 1
@<TRIPOS>MOLECULE
CHEMBL520284
   51    55     0     0     0
SMALL
USER_CHARGES

@<TRIPOS>ATOM
      1 C1         -0.0173    1.4248    0.0099 C.3       1 <0>         0.0245
      2 O1          0.0021   -0.0041    0.0020 O.3       1 <0>        -0.3029
      3 C2          0.6064   -0.6077   -1.0568 C.ar      1 <0>         0.1052
      4 C3          1.1688    0.1605   -2.0550 C.ar      1 <0>        -0.1294
      5 C4          1.7901   -0.4602   -3.1426 C.ar      1 <0>         0.0559
      6 C5          1.8355   -1.8627   -3.2080 C.ar      1 <0>         0.0586
      7 C6          1.2653   -2.6250   -2.1982 C.ar      1 <0>        -0.1665
      8 C7          0.6590   -2.0012   -1.1241 C.ar      1 <0>         0.1310
      9 O2          0.1056   -2.7483   -0.1313 O.3       1 <0>        -0.3000
     10 C8          0.1942   -4.1686   -0.2619 C.3       1 <0>         0.0209
     11 N1          2.5040   -2.1684   -4.3812 N.pl3     1 <0>        -0.3915
     12 C9          2.8354   -0.9871   -4.9764 C.2       1 <0>         0.2726
     13 N2          2.4180    0.0100   -4.2523 N.2       1 <0>        -0.4833
     14 C10         2.7860   -3.4461   -4.8641 C.2       1 <0>         0.0113
     15 C11         2.5639   -3.9587   -6.1106 C.2       1 <0>        -0.1781
     16 C12         2.9254   -5.2615   -6.3731 C.2       1 <0>         0.0719
     17 C13         3.5037   -6.0023   -5.3532 C.2       1 <0>        -0.0172
     18 S1          3.5358   -4.8239   -4.0126 S.3       1 <0>         0.1584
     19 C14         3.9721   -7.3924   -5.3725 C.2       1 <0>         0.1112
     20 N3          3.9359   -8.2375   -6.4107 N.2       1 <0>        -0.3317
     21 N4          4.4411   -9.3558   -6.0158 N.2       1 <0>        -0.1860
     22 N5          4.7923   -9.2546   -4.7822 N.2       1 <0>        -0.1815
     23 N6          4.5264   -8.0670   -4.3570 N.2       1 <0>        -0.3598
     24 O3          2.7201   -5.8077   -7.6013 O.3       1 <0>        -0.2661
     25 C15         2.1186   -4.9708   -8.5912 C.3       1 <0>         0.0801
     26 C16         1.9712   -5.7412   -9.8780 C.ar      1 <0>        -0.0372
     27 C17         2.3914   -7.0565   -9.9483 C.ar      1 <0>        -0.0886
     28 C18         2.2562   -7.7630  -11.1284 C.ar      1 <0>        -0.0835
     29 C19         1.7002   -7.1547  -12.2386 C.ar      1 <0>        -0.1233
     30 C20         1.2792   -5.8401  -12.1680 C.ar      1 <0>        -0.0778
     31 C21         1.4106   -5.1347  -10.9862 C.ar      1 <0>        -0.1840
     32 C22         0.9468   -3.7030  -10.9078 C.3       1 <0>         0.5072
     33 F1          0.4199   -3.3150  -12.1443 F         1 <0>        -0.1768
     34 F2         -0.0400   -3.5858   -9.9230 F         1 <0>        -0.1763
     35 F3          2.0298   -2.8790  -10.5831 F         1 <0>        -0.1763
     36 H1          1.0053    1.8021    0.0021 H         1 <0>         0.0561
     37 H2         -0.5445    1.7859   -0.8732 H         1 <0>         0.0559
     38 H3         -0.5275    1.7763    0.9067 H         1 <0>         0.1001
     39 H4          1.1288    1.2382   -1.9965 H         1 <0>         0.1451
     40 H5          1.2999   -3.7032   -2.2488 H         1 <0>         0.1419
     41 H6         -0.3071   -4.4812   -1.1779 H         1 <0>         0.0576
     42 H7          1.2424   -4.4650   -0.3020 H         1 <0>         0.0603
     43 H8         -0.2850   -4.6428    0.5945 H         1 <0>         0.1037
     44 H9          3.3666   -0.8929   -5.9120 H         1 <0>         0.2176
     45 H10         2.1106   -3.3509   -6.8796 H         1 <0>         0.1428
     46 H11         1.1363   -4.6483   -8.2462 H         1 <0>         0.0792
     47 H12         2.7489   -4.0978   -8.7606 H         1 <0>         0.0797
     48 H13         2.8257   -7.5317   -9.0811 H         1 <0>         0.1624
     49 H14         2.5851   -8.7903  -11.1836 H         1 <0>         0.1360
     50 H15         1.5951   -7.7066  -13.1609 H         1 <0>         0.1333
     51 H16         0.8452   -5.3648  -13.0353 H         1 <0>         0.1371
@<TRIPOS>BOND
     1    1    2 1
     2    1   36 1
     3    1   37 1
     4    1   38 1
     5    2    3 1
     6    3    8 ar
     7    3    4 ar
     8    4    5 ar
     9    4   39 1
    10    5   13 1
    11    5    6 ar
    12    6    7 ar
    13    6   11 1
    14    7    8 ar
    15    7   40 1
    16    8    9 1
    17    9   10 1
    18   10   41 1
    19   10   42 1
    20   10   43 1
    21   11   12 1
    22   11   14 1
    23   12   13 2
    24   12   44 1
    25   14   18 1
    26   14   15 2
    27   15   16 1
    28   15   45 1
    29   16   17 2
    30   16   24 1
    31   17   18 1
    32   17   19 1
    33   19   23 2
    34   19   20 1
    35   20   21 1
    36   21   22 2
    37   22   23 1
    38   24   25 1
    39   25   26 1
    40   25   46 1
    41   25   47 1
    42   26   31 ar
    43   26   27 ar
    44   27   28 ar
    45   27   48 1
    46   28   29 ar
    47   28   49 1
    48   29   30 ar
    49   29   50 1
    50   30   31 ar
    51   30   51 1
    52   31   32 1
    53   32   33 1
    54   32   34 1
    55   32   35 1
@<TRIPOS>MOLECULE
CHEMBL564067
   63    67     0     0     0
SMALL
USER_CHARGES

@<TRIPOS>ATOM
      1 C1          0.2924    1.2790   -0.1308 C.3       1 <0>        -0.1785
      2 C2          0.0646   -0.2292   -0.0104 C.3       1 <0>         0.1073
      3 H1          0.5180   -0.7343   -0.8632 H         1 <0>         0.0969
      4 C3          0.6932   -0.7320    1.2636 C.ar      1 <0>        -0.0419
      5 C4         -0.0724   -0.8641    2.4070 C.ar      1 <0>        -0.0703
      6 C5          0.5040   -1.3253    3.5755 C.ar      1 <0>        -0.0916
      7 C6          1.8466   -1.6547    3.6017 C.ar      1 <0>        -0.1483
      8 C7          2.6130   -1.5230    2.4593 C.ar      1 <0>        -0.0853
      9 C8          2.0352   -1.0668    1.2876 C.ar      1 <0>        -0.0283
     10 Cl1         2.9958   -0.9074   -0.1496 Cl        1 <0>        -0.0376
     11 C9          2.4744   -2.1570    4.8763 C.3       1 <0>         0.0456
     12 N1          2.3662   -3.6210    4.9316 N.4       1 <0>        -0.3848
     13 C10         0.9511   -4.0029    5.0091 C.3       1 <0>        -0.0098
     14 C11         0.8284   -5.5280    4.9853 C.3       1 <0>        -0.1422
     15 C12         1.5832   -6.1141    6.1819 C.3       1 <0>         0.0964
     16 C13         3.0412   -5.6482    6.1312 C.3       1 <0>        -0.1835
     17 C14         3.0818   -4.1187    6.1125 C.3       1 <0>        -0.0029
     18 O1          1.5353   -7.5412    6.1247 O.3       1 <0>        -0.5529
     19 O2         -1.3386   -0.4987    0.0122 O.3       1 <0>        -0.2665
     20 C15        -1.9649   -0.6067   -1.1879 C.2       1 <0>         0.2041
     21 C16        -1.2942   -0.3504   -2.3536 C.2       1 <0>        -0.2559
     22 C17        -1.9771   -0.4741   -3.5570 C.2       1 <0>         0.0179
     23 S1         -3.6073   -0.9651   -3.0209 S.3       1 <0>         0.1147
     24 C18        -3.3053   -0.9869   -1.2617 C.2       1 <0>        -0.2976
     25 C19        -4.1957   -1.3053   -0.2129 C.2       1 <0>         0.6165
     26 O3         -3.8142   -1.2651    0.9436 O.2       1 <0>        -0.5328
     27 N2         -5.4676   -1.6537   -0.4912 N.am      1 <0>        -0.8536
     28 C20        -1.4839   -0.2557   -4.9220 C.2       1 <0>        -0.0401
     29 C21        -0.1846    0.0268   -5.2952 C.2       1 <0>         0.1111
     30 N3         -0.1495    0.1535   -6.6166 N.2       1 <0>        -0.4840
     31 C22        -1.3665   -0.0338   -7.1169 C.2       1 <0>         0.2505
     32 N4         -2.2259   -0.2983   -6.0835 N.pl3     1 <0>        -0.3474
     33 C23        -3.5462   -0.5360   -6.3236 C.2       1 <0>         0.0485
     34 C24        -4.0301   -0.5185   -7.5848 C.2       1 <0>        -0.1215
     35 C25        -3.1747   -0.2547   -8.6657 C.2       1 <0>        -0.0861
     36 C26        -1.8553   -0.0074   -8.4368 C.2       1 <0>        -0.0781
     37 H2          1.3627    1.4846   -0.1480 H         1 <0>         0.0806
     38 H3         -0.1623    1.6427   -1.0523 H         1 <0>         0.0784
     39 H4         -0.1610    1.7842    0.7221 H         1 <0>         0.0763
     40 H5         -1.1210   -0.6066    2.3873 H         1 <0>         0.1594
     41 H6         -0.0944   -1.4280    4.4687 H         1 <0>         0.1416
     42 H7          3.6618   -1.7801    2.4799 H         1 <0>         0.1454
     43 H8          3.5254   -1.8691    4.9016 H         1 <0>         0.1412
     44 H9          1.9578   -1.7219    5.7318 H         1 <0>         0.1410
     45 H10         0.5216   -3.6188    5.9343 H         1 <0>         0.1330
     46 H11         0.4146   -3.5824    4.1585 H         1 <0>         0.1382
     47 H12        -0.2229   -5.8096    5.0447 H         1 <0>         0.1198
     48 H13         1.2574   -5.9133    4.0602 H         1 <0>         0.0954
     49 H14         1.1225   -5.7696    7.1077 H         1 <0>         0.0738
     50 H15         3.5715   -6.0158    7.0097 H         1 <0>         0.1154
     51 H16         3.5160   -6.0360    5.2299 H         1 <0>         0.0967
     52 H17         4.1184   -3.7836    6.0766 H         1 <0>         0.1352
     53 H18         2.6070   -3.7321    7.0143 H         1 <0>         0.1322
     54 H19         1.9947   -7.9797    6.8540 H         1 <0>         0.3937
     55 H20        -0.2548   -0.0574   -2.3379 H         1 <0>         0.1552
     56 H21        -5.7713   -1.6857   -1.4119 H         1 <0>         0.3980
     57 H22        -6.0793   -1.8724    0.2291 H         1 <0>         0.4093
     58 H23         0.6580    0.1276   -4.6272 H         1 <0>         0.1908
     59 H24        -4.2117   -0.7407   -5.4980 H         1 <0>         0.1601
     60 H25        -5.0784   -0.7085   -7.7618 H         1 <0>         0.1615
     61 H26        -3.5623   -0.2416   -9.6737 H         1 <0>         0.1540
     62 H27        -1.1877    0.1952   -9.2613 H         1 <0>         0.1620
     63 H28         2.7749   -4.0191    4.0994 H         1 <0>         0.4237
@<TRIPOS>BOND
     1    1    2 1
     2    1   37 1
     3    1   38 1
     4    1   39 1
     5    2    3 1
     6    2    4 1
     7    2   19 1
     8    4    9 ar
     9    4    5 ar
    10    5    6 ar
    11    5   40 1
    12    6    7 ar
    13    6   41 1
    14    7    8 ar
    15    7   11 1
    16    8    9 ar
    17    8   42 1
    18    9   10 1
    19   11   12 1
    20   11   43 1
    21   11   44 1
    22   12   17 1
    23   12   13 1
    24   12   63 1
    25   13   14 1
    26   13   45 1
    27   13   46 1
    28   14   15 1
    29   14   47 1
    30   14   48 1
    31   15   16 1
    32   15   18 1
    33   15   49 1
    34   16   17 1
    35   16   50 1
    36   16   51 1
    37   17   52 1
    38   17   53 1
    39   18   54 1
    40   19   20 1
    41   20   24 2
    42   20   21 1
    43   21   22 2
    44   21   55 1
    45   22   23 1
    46   22   28 1
    47   23   24 1
    48   24   25 1
    49   25   26 2
    50   25   27 am
    51   27   56 1
    52   27   57 1
    53   28   32 1
    54   28   29 2
    55   29   30 1
    56   29   58 1
    57   30   31 2
    58   31   36 1
    59   31   32 1
    60   32   33 1
    61   33   34 2
    62   33   59 1
    63   34   35 1
    64   34   60 1
    65   35   36 2
    66   35   61 1
    67   36   62 1
@<TRIPOS>MOLECULE
CHEMBL564067__1
   64    68     0     0     0
SMALL
USER_CHARGES

@<TRIPOS>ATOM
      1 C1          0.2924    1.2790   -0.1308 C.3       1 <0>        -0.1808
      2 C2          0.0646   -0.2292   -0.0104 C.3       1 <0>         0.1103
      3 H1          0.5180   -0.7343   -0.8632 H         1 <0>         0.0939
      4 C3          0.6932   -0.7320    1.2636 C.ar      1 <0>        -0.0507
      5 C4         -0.0724   -0.8641    2.4070 C.ar      1 <0>        -0.0700
      6 C5          0.5040   -1.3253    3.5755 C.ar      1 <0>        -0.0890
      7 C6          1.8466   -1.6547    3.6017 C.ar      1 <0>        -0.1408
      8 C7          2.6130   -1.5230    2.4593 C.ar      1 <0>        -0.0839
      9 C8          2.0352   -1.0668    1.2876 C.ar      1 <0>        -0.0264
     10 Cl1         2.9958   -0.9074   -0.1496 Cl        1 <0>        -0.0433
     11 C9          2.4744   -2.1570    4.8763 C.3       1 <0>         0.0428
     12 N1          2.3662   -3.6210    4.9316 N.4       1 <0>        -0.3845
     13 C10         0.9511   -4.0029    5.0091 C.3       1 <0>        -0.0097
     14 C11         0.8284   -5.5280    4.9853 C.3       1 <0>        -0.1418
     15 C12         1.5832   -6.1141    6.1819 C.3       1 <0>         0.0959
     16 C13         3.0412   -5.6482    6.1312 C.3       1 <0>        -0.1838
     17 C14         3.0818   -4.1187    6.1125 C.3       1 <0>        -0.0034
     18 O1          1.5353   -7.5412    6.1247 O.3       1 <0>        -0.5531
     19 O2         -1.3386   -0.4987    0.0122 O.3       1 <0>        -0.2605
     20 C15        -1.9649   -0.6067   -1.1879 C.2       1 <0>         0.1811
     21 C16        -1.2942   -0.3504   -2.3536 C.2       1 <0>        -0.1911
     22 C17        -1.9771   -0.4741   -3.5570 C.2       1 <0>        -0.0804
     23 S1         -3.6073   -0.9651   -3.0209 S.3       1 <0>         0.1683
     24 C18        -3.3053   -0.9869   -1.2617 C.2       1 <0>        -0.2464
     25 C19        -4.1957   -1.3053   -0.2129 C.2       1 <0>         0.6068
     26 O3         -3.8142   -1.2651    0.9436 O.2       1 <0>        -0.5123
     27 N2         -5.4676   -1.6537   -0.4912 N.am      1 <0>        -0.8473
     28 C20        -1.4839   -0.2557   -4.9220 C.2       1 <0>         0.0704
     29 C21        -0.1846    0.0268   -5.2952 C.2       1 <0>         0.1138
     30 N3         -0.1495    0.1535   -6.6166 N.pl3     1 <0>        -0.4959
     31 C22        -1.3665   -0.0338   -7.1169 C.cat     1 <0>         0.3085
     32 N4         -2.2259   -0.2983   -6.0835 N.pl3     1 <0>        -0.3218
     33 C23        -3.5462   -0.5360   -6.3236 C.2       1 <0>         0.0774
     34 C24        -4.0301   -0.5185   -7.5848 C.2       1 <0>        -0.0945
     35 C25        -3.1747   -0.2547   -8.6657 C.2       1 <0>        -0.0120
     36 C26        -1.8553   -0.0074   -8.4368 C.2       1 <0>        -0.1147
     37 H2          1.3627    1.4846   -0.1480 H         1 <0>         0.0844
     38 H3         -0.1623    1.6427   -1.0523 H         1 <0>         0.0741
     39 H4         -0.1610    1.7842    0.7221 H         1 <0>         0.0815
     40 H5         -1.1210   -0.6066    2.3873 H         1 <0>         0.1592
     41 H6         -0.0944   -1.4280    4.4687 H         1 <0>         0.1444
     42 H7          3.6618   -1.7801    2.4799 H         1 <0>         0.1477
     43 H8          3.5254   -1.8691    4.9016 H         1 <0>         0.1430
     44 H9          1.9578   -1.7219    5.7318 H         1 <0>         0.1431
     45 H10         0.5216   -3.6188    5.9343 H         1 <0>         0.1341
     46 H11         0.4146   -3.5824    4.1585 H         1 <0>         0.1359
     47 H12        -0.2229   -5.8096    5.0447 H         1 <0>         0.1200
     48 H13         1.2574   -5.9133    4.0602 H         1 <0>         0.0946
     49 H14         1.1225   -5.7696    7.1077 H         1 <0>         0.0747
     50 H15         3.5715   -6.0158    7.0097 H         1 <0>         0.1172
     51 H16         3.5160   -6.0360    5.2299 H         1 <0>         0.0966
     52 H17         4.1184   -3.7836    6.0766 H         1 <0>         0.1362
     53 H18         2.6070   -3.7321    7.0143 H         1 <0>         0.1335
     54 H19         1.9947   -7.9797    6.8540 H         1 <0>         0.3955
     55 H20        -0.2548   -0.0574   -2.3379 H         1 <0>         0.1615
     56 H21        -5.7713   -1.6857   -1.4119 H         1 <0>         0.3982
     57 H22        -6.0793   -1.8724    0.2291 H         1 <0>         0.4166
     58 H23         0.6580    0.1276   -4.6272 H         1 <0>         0.2350
     59 H24        -4.2117   -0.7407   -5.4980 H         1 <0>         0.1892
     60 H25        -5.0784   -0.7085   -7.7618 H         1 <0>         0.1905
     61 H26        -3.5623   -0.2416   -9.6737 H         1 <0>         0.1828
     62 H27        -1.1877    0.1952   -9.2613 H         1 <0>         0.1871
     63 H28         2.7749   -4.0191    4.0994 H         1 <0>         0.4230
     64 H29         0.6439    0.3532   -7.1377 H         1 <0>         0.4696
@<TRIPOS>BOND
     1    1    2 1
     2    1   37 1
     3    1   38 1
     4    1   39 1
     5    2    3 1
     6    2    4 1
     7    2   19 1
     8    4    9 ar
     9    4    5 ar
    10    5    6 ar
    11    5   40 1
    12    6    7 ar
    13    6   41 1
    14    7    8 ar
    15    7   11 1
    16    8    9 ar
    17    8   42 1
    18    9   10 1
    19   11   12 1
    20   11   43 1
    21   11   44 1
    22   12   17 1
    23   12   13 1
    24   12   63 1
    25   13   14 1
    26   13   45 1
    27   13   46 1
    28   14   15 1
    29   14   47 1
    30   14   48 1
    31   15   16 1
    32   15   18 1
    33   15   49 1
    34   16   17 1
    35   16   50 1
    36   16   51 1
    37   17   52 1
    38   17   53 1
    39   18   54 1
    40   19   20 1
    41   20   24 2
    42   20   21 1
    43   21   22 2
    44   21   55 1
    45   22   23 1
    46   22   28 1
    47   23   24 1
    48   24   25 1
    49   25   26 2
    50   25   27 am
    51   27   56 1
    52   27   57 1
    53   28   32 1
    54   28   29 2
    55   29   30 1
    56   29   58 1
    57   30   31 2
    58   30   64 1
    59   31   36 1
    60   31   32 1
    61   32   33 1
    62   33   34 2
    63   33   59 1
    64   34   35 1
    65   34   60 1
    66   35   36 2
    67   35   61 1
    68   36   62 1
@<TRIPOS>MOLECULE
CHEMBL1096028
   63    67     0     0     0
SMALL
USER_CHARGES

@<TRIPOS>ATOM
      1 C1         -0.8423    1.4260   -0.5470 C.3       1 <0>        -0.1987
      2 C2         -0.5275   -0.0390   -0.3872 C.2       1 <0>         0.3924
      3 O1          0.6117   -0.4330   -0.5237 O.2       1 <0>        -0.4494
      4 C3         -1.5986   -0.9887   -0.0667 C.ar      1 <0>        -0.1564
      5 C4         -2.9019   -0.5300    0.1616 C.ar      1 <0>        -0.1221
      6 C5         -3.9054   -1.4320    0.4632 C.ar      1 <0>         0.1690
      7 C6         -3.6240   -2.7936    0.5409 C.ar      1 <0>        -0.1275
      8 C7         -2.3440   -3.2559    0.3179 C.ar      1 <0>        -0.0764
      9 C8         -1.3243   -2.3654    0.0076 C.ar      1 <0>         0.2015
     10 N1         -0.0346   -2.8338   -0.2234 N.pl3     1 <0>        -0.6284
     11 C9          0.1625   -3.9718   -0.9891 C.ar      1 <0>         0.5605
     12 N2         -0.8764   -4.5362   -1.5883 N.ar      1 <0>        -0.5587
     13 C10        -0.7406   -5.6340   -2.3166 C.ar      1 <0>         0.1964
     14 C11         0.5147   -6.1947   -2.4606 C.ar      1 <0>        -0.2090
     15 C12         1.5946   -5.5550   -1.8355 C.ar      1 <0>         0.2949
     16 N3          1.3870   -4.4671   -1.1091 N.ar      1 <0>        -0.5508
     17 C13         2.9374   -6.1139   -2.0686 C.2       1 <0>         0.0258
     18 C14         3.1408   -7.0335   -3.0752 C.2       1 <0>        -0.1002
     19 C15         4.4956   -7.3622   -3.0167 C.2       1 <0>        -0.0136
     20 N4          5.0292   -6.6425   -2.0409 N.2       1 <0>        -0.2432
     21 N5          4.1327   -5.8978   -1.4856 N.pl3     1 <0>        -0.2374
     22 C16         4.3779   -4.9598   -0.3873 C.3       1 <0>         0.0802
     23 C17         5.2019   -8.3311   -3.8800 C.2       1 <0>         0.6116
     24 O2          4.5933   -8.9314   -4.7444 O.2       1 <0>        -0.5287
     25 N6          6.5208   -8.5494   -3.7092 N.am      1 <0>        -0.8399
     26 C18         2.0407   -7.4897   -3.9887 C.3       1 <0>        -0.0513
     27 C19         0.7059   -7.4612   -3.2433 C.3       1 <0>        -0.0653
     28 N7         -5.2085   -0.9750    0.6916 N.pl3     1 <0>        -0.6456
     29 C20        -6.2642   -1.8944    1.1435 C.3       1 <0>         0.1005
     30 C21        -6.9551   -1.2782    2.3645 C.3       1 <0>        -0.0234
     31 N8         -7.4288    0.0705    2.0288 N.4       1 <0>        -0.3838
     32 C22        -6.2851    0.9446    1.7390 C.3       1 <0>        -0.0235
     33 C23        -5.5598    0.4396    0.4924 C.3       1 <0>         0.0986
     34 C24        -8.1862    0.6177    3.1623 C.3       1 <0>        -0.0472
     35 H1          0.0721    1.9707   -0.7819 H         1 <0>         0.0902
     36 H2         -1.5612    1.5571   -1.3558 H         1 <0>         0.0936
     37 H3         -1.2657    1.8100    0.3812 H         1 <0>         0.0925
     38 H4         -3.1225    0.5256    0.1026 H         1 <0>         0.1355
     39 H5         -4.4132   -3.4919    0.7777 H         1 <0>         0.1315
     40 H6         -2.1349   -4.3136    0.3803 H         1 <0>         0.1379
     41 H7          0.7265   -2.3637    0.1516 H         1 <0>         0.4329
     42 H8         -1.5993   -6.0854   -2.7914 H         1 <0>         0.1781
     43 H9          4.2417   -5.4720    0.5652 H         1 <0>         0.0885
     44 H10         5.3979   -4.5812   -0.4536 H         1 <0>         0.1014
     45 H11         3.6765   -4.1283   -0.4562 H         1 <0>         0.1118
     46 H12         7.0064   -8.0704   -3.0195 H         1 <0>         0.4082
     47 H13         6.9845   -9.1855   -4.2760 H         1 <0>         0.4095
     48 H14         1.9881   -6.8266   -4.8522 H         1 <0>         0.0841
     49 H15         2.2466   -8.5059   -4.3249 H         1 <0>         0.1050
     50 H16         0.6656   -8.3086   -2.5589 H         1 <0>         0.0836
     51 H17        -0.1043   -7.5550   -3.9664 H         1 <0>         0.0903
     52 H18        -6.9917   -2.0378    0.3445 H         1 <0>         0.0888
     53 H19        -5.8228   -2.8527    1.4172 H         1 <0>         0.1261
     54 H20        -7.8025   -1.8994    2.6546 H         1 <0>         0.1412
     55 H21        -6.2473   -1.2195    3.1914 H         1 <0>         0.1326
     56 H22        -6.6389    1.9613    1.5683 H         1 <0>         0.1415
     57 H23        -5.5977    0.9360    2.5848 H         1 <0>         0.1326
     58 H24        -4.6528    1.0237    0.3360 H         1 <0>         0.1254
     59 H25        -6.2149    0.5360   -0.3733 H         1 <0>         0.0890
     60 H26        -7.5420    0.6662    4.0402 H         1 <0>         0.1216
     61 H27        -8.5385    1.6190    2.9144 H         1 <0>         0.1253
     62 H28        -9.0401   -0.0260    3.3734 H         1 <0>         0.1253
     63 H29        -8.0282    0.0231    1.2185 H         1 <0>         0.4251
@<TRIPOS>BOND
     1    1    2 1
     2    1   35 1
     3    1   36 1
     4    1   37 1
     5    2    3 2
     6    2    4 1
     7    4    9 ar
     8    4    5 ar
     9    5    6 ar
    10    5   38 1
    11    6    7 ar
    12    6   28 1
    13    7    8 ar
    14    7   39 1
    15    8    9 ar
    16    8   40 1
    17    9   10 1
    18   10   11 1
    19   10   41 1
    20   11   16 ar
    21   11   12 ar
    22   12   13 ar
    23   13   14 ar
    24   13   42 1
    25   14   27 1
    26   14   15 ar
    27   15   16 ar
    28   15   17 1
    29   17   21 1
    30   17   18 2
    31   18   19 1
    32   18   26 1
    33   19   20 2
    34   19   23 1
    35   20   21 1
    36   21   22 1
    37   22   43 1
    38   22   44 1
    39   22   45 1
    40   23   24 2
    41   23   25 am
    42   25   46 1
    43   25   47 1
    44   26   27 1
    45   26   48 1
    46   26   49 1
    47   27   50 1
    48   27   51 1
    49   28   33 1
    50   28   29 1
    51   29   30 1
    52   29   52 1
    53   29   53 1
    54   30   31 1
    55   30   54 1
    56   30   55 1
    57   31   32 1
    58   31   34 1
    59   31   63 1
    60   32   33 1
    61   32   56 1
    62   32   57 1
    63   33   58 1
    64   33   59 1
    65   34   60 1
    66   34   61 1
    67   34   62 1
@<TRIPOS>MOLECULE
CHEMBL1096028__1
   62    66     0     0     0
SMALL
USER_CHARGES

@<TRIPOS>ATOM
      1 C1          0.5409    1.4405   -0.8540 C.3       1 <0>        -0.1994
      2 C2          0.4175   -0.0320   -0.5581 C.2       1 <0>         0.3978
      3 O1          0.5789   -0.4390    0.5732 O.2       1 <0>        -0.4618
      4 C3          0.1023   -0.9732   -1.6382 C.ar      1 <0>        -0.1512
      5 C4         -0.1188   -0.5043   -2.9392 C.ar      1 <0>        -0.1397
      6 C5         -0.4154   -1.3984   -3.9512 C.ar      1 <0>         0.1988
      7 C6         -0.4953   -2.7620   -3.6808 C.ar      1 <0>        -0.1422
      8 C7         -0.2793   -3.2343   -2.4032 C.ar      1 <0>        -0.0724
      9 C8          0.0260   -2.3519   -1.3750 C.ar      1 <0>         0.1700
     10 N1          0.2498   -2.8304   -0.0877 N.pl3     1 <0>        -0.6232
     11 C9          1.0173   -3.9680    0.1049 C.ar      1 <0>         0.5663
     12 N2          1.6257   -4.5214   -0.9344 N.ar      1 <0>        -0.5547
     13 C10         2.3562   -5.6183   -0.8031 C.ar      1 <0>         0.1988
     14 C11         2.4926   -6.1897    0.4483 C.ar      1 <0>        -0.2197
     15 C12         1.8577   -5.5614    1.5292 C.ar      1 <0>         0.2903
     16 N3          1.1298   -4.4737    1.3259 N.ar      1 <0>        -0.5555
     17 C13         2.0826   -6.1315    2.8687 C.2       1 <0>         0.0333
     18 C14         3.0903   -7.0500    3.0713 C.2       1 <0>        -0.1038
     19 C15         3.0228   -7.3909    4.4227 C.2       1 <0>        -0.0163
     20 N4          2.0410   -6.6786    4.9554 N.2       1 <0>        -0.2478
     21 N5          1.4902   -5.9276    4.0615 N.pl3     1 <0>        -0.2375
     22 C16         0.3874   -4.9949    4.3069 C.3       1 <0>         0.0802
     23 C17         3.8837   -8.3636    5.1267 C.2       1 <0>         0.6129
     24 O2          4.7543   -8.9560    4.5193 O.2       1 <0>        -0.5299
     25 N6          3.7038   -8.5941    6.4424 N.am      1 <0>        -0.8413
     26 C18         4.0131   -7.4939    1.9740 C.3       1 <0>        -0.0497
     27 C19         3.2774   -7.4556    0.6340 C.3       1 <0>        -0.0626
     28 N7         -0.6367   -0.9312   -5.2519 N.pl3     1 <0>        -0.6316
     29 C20        -0.4285    0.4848   -5.5911 C.3       1 <0>         0.1263
     30 C21         0.4741    0.5617   -6.8270 C.3       1 <0>         0.0379
     31 N8         -0.1025   -0.2563   -7.9023 N.3       1 <0>        -0.5423
     32 C22        -0.1550   -1.6746   -7.5232 C.3       1 <0>         0.0376
     33 C23        -1.0776   -1.8444   -6.3173 C.3       1 <0>         0.1258
     34 C24         0.6384   -0.0740   -9.1575 C.3       1 <0>         0.0241
     35 H1          1.5738    1.6740   -1.1121 H         1 <0>         0.0976
     36 H2         -0.1097    1.6991   -1.6894 H         1 <0>         0.0867
     37 H3          0.2478    2.0137    0.0257 H         1 <0>         0.0890
     38 H4         -0.0581    0.5530   -3.1513 H         1 <0>         0.1364
     39 H5         -0.7282   -3.4541   -4.4765 H         1 <0>         0.1310
     40 H6         -0.3433   -4.2936   -2.2026 H         1 <0>         0.1308
     41 H7         -0.1314   -2.3676    0.6748 H         1 <0>         0.4295
     42 H8          2.8385   -6.0607   -1.6622 H         1 <0>         0.1757
     43 H9         -0.5625   -5.5086    4.1592 H         1 <0>         0.0883
     44 H10         0.4452   -4.6252    5.3307 H         1 <0>         0.0998
     45 H11         0.4591   -4.1570    3.6134 H         1 <0>         0.1136
     46 H12         3.0092   -8.1213    6.9271 H         1 <0>         0.4079
     47 H13         4.2690   -9.2327    6.9046 H         1 <0>         0.4079
     48 H14         4.8751   -6.8279    1.9336 H         1 <0>         0.0825
     49 H15         4.3507   -8.5110    2.1734 H         1 <0>         0.1022
     50 H16         2.5958   -8.3046    0.5812 H         1 <0>         0.0807
     51 H17         4.0067   -7.5402   -0.1716 H         1 <0>         0.0881
     52 H18        -1.3880    0.9540   -5.8087 H         1 <0>         0.0721
     53 H19         0.0506    0.9948   -4.7554 H         1 <0>         0.0850
     54 H20         0.5496    1.5973   -7.1584 H         1 <0>         0.0865
     55 H21         1.4664    0.1863   -6.5766 H         1 <0>         0.0392
     56 H22        -0.5358   -2.2608   -8.3595 H         1 <0>         0.0867
     57 H23         0.8460   -2.0188   -7.2632 H         1 <0>         0.0389
     58 H24        -1.0273   -2.8734   -5.9615 H         1 <0>         0.0868
     59 H25        -2.1006   -1.6033   -6.6060 H         1 <0>         0.0716
     60 H26         1.6775   -0.3696   -9.0124 H         1 <0>         0.0262
     61 H27         0.1906   -0.6908   -9.9367 H         1 <0>         0.0706
     62 H28         0.5970    0.9738   -9.4550 H         1 <0>         0.0709
@<TRIPOS>BOND
     1    1    2 1
     2    1   35 1
     3    1   36 1
     4    1   37 1
     5    2    3 2
     6    2    4 1
     7    4    9 ar
     8    4    5 ar
     9    5    6 ar
    10    5   38 1
    11    6    7 ar
    12    6   28 1
    13    7    8 ar
    14    7   39 1
    15    8    9 ar
    16    8   40 1
    17    9   10 1
    18   10   11 1
    19   10   41 1
    20   11   16 ar
    21   11   12 ar
    22   12   13 ar
    23   13   14 ar
    24   13   42 1
    25   14   27 1
    26   14   15 ar
    27   15   16 ar
    28   15   17 1
    29   17   21 1
    30   17   18 2
    31   18   19 1
    32   18   26 1
    33   19   20 2
    34   19   23 1
    35   20   21 1
    36   21   22 1
    37   22   43 1
    38   22   44 1
    39   22   45 1
    40   23   24 2
    41   23   25 am
    42   25   46 1
    43   25   47 1
    44   26   27 1
    45   26   48 1
    46   26   49 1
    47   27   50 1
    48   27   51 1
    49   28   33 1
    50   28   29 1
    51   29   30 1
    52   29   52 1
    53   29   53 1
    54   30   31 1
    55   30   54 1
    56   30   55 1
    57   31   32 1
    58   31   34 1
    59   32   33 1
    60   32   56 1
    61   32   57 1
    62   33   58 1
    63   33   59 1
    64   34   60 1
    65   34   61 1
    66   34   62 1
@<TRIPOS>MOLECULE
CHEMBL1209843
   53    57     0     0     0
SMALL
USER_CHARGES

@<TRIPOS>ATOM
      1 C1          0.1876    1.5069   -0.1238 C.3       1 <0>        -0.1757
      2 C2          0.0010   -0.0065    0.0017 C.3       1 <0>         0.1172
      3 H1          0.4017   -0.4968   -0.8856 H         1 <0>         0.0893
      4 C3         -1.4668   -0.3227    0.1306 C.ar      1 <0>        -0.0843
      5 C4         -2.0336   -0.4760    1.3820 C.ar      1 <0>        -0.0764
      6 C5         -3.3799   -0.7660    1.5004 C.ar      1 <0>        -0.1134
      7 C6         -4.1604   -0.9029    0.3674 C.ar      1 <0>        -0.1013
      8 C7         -3.5948   -0.7499   -0.8842 C.ar      1 <0>        -0.1108
      9 C8         -2.2484   -0.4539   -1.0032 C.ar      1 <0>        -0.0268
     10 Cl1        -1.5386   -0.2550   -2.5750 Cl        1 <0>        -0.0673
     11 O1          0.6932   -0.4774    1.1597 O.3       1 <0>        -0.2595
     12 C9          2.0126   -0.7635    1.0154 C.2       1 <0>         0.2009
     13 C10         2.6661   -0.4997   -0.1631 C.2       1 <0>        -0.2354
     14 C11         3.9967   -0.8024   -0.2702 C.2       1 <0>         0.1187
     15 S1          4.3650   -1.4858    1.3370 S.3       1 <0>         0.1481
     16 C12         2.7410   -1.3275    2.0614 C.2       1 <0>        -0.2776
     17 C13         2.3063   -1.6833    3.3580 C.2       1 <0>         0.6126
     18 O2          1.1460   -1.5025    3.6825 O.2       1 <0>        -0.5180
     19 N1          3.1753   -2.2227    4.2357 N.am      1 <0>        -0.8532
     20 N2          4.8471   -0.6230   -1.3572 N.pl3     1 <0>        -0.4158
     21 C14         4.6084   -1.0079   -2.6441 C.2       1 <0>         0.2730
     22 N3          5.6153   -0.6837   -3.4012 N.2       1 <0>        -0.4679
     23 C15         6.5705   -0.0688   -2.6564 C.ar      1 <0>         0.0428
     24 C16         6.0903   -0.0156   -1.3359 C.ar      1 <0>         0.0588
     25 C17         6.8589    0.5695   -0.3428 C.ar      1 <0>        -0.1117
     26 C18         8.1019    1.1040   -0.6620 C.ar      1 <0>         0.0393
     27 C19         8.5729    1.0512   -1.9766 C.ar      1 <0>        -0.1203
     28 C20         7.8248    0.4697   -2.9584 C.ar      1 <0>        -0.0491
     29 C21         8.9310    1.7332    0.3967 C.2       1 <0>        -0.2062
     30 C22         8.5914    1.8534    1.7584 C.2       1 <0>         0.0665
     31 N4          9.5730    2.4625    2.3694 N.2       1 <0>        -0.2913
     32 N5         10.5698    2.7529    1.4301 N.pl3     1 <0>        -0.3695
     33 C23        10.1631    2.2948    0.2286 C.2       1 <0>         0.0796
     34 C24        11.8383    3.4319    1.7060 C.3       1 <0>         0.0974
     35 H2          1.2492    1.7356   -0.2170 H         1 <0>         0.0685
     36 H3         -0.3404    1.8661   -1.0071 H         1 <0>         0.0804
     37 H4         -0.2131    1.9971    0.7635 H         1 <0>         0.0759
     38 H5         -1.4244   -0.3696    2.2674 H         1 <0>         0.1456
     39 H6         -3.8222   -0.8861    2.4783 H         1 <0>         0.1332
     40 H7         -5.2121   -1.1299    0.4605 H         1 <0>         0.1348
     41 H8         -4.2046   -0.8571   -1.7692 H         1 <0>         0.1371
     42 H9          2.1369   -0.0592   -0.9952 H         1 <0>         0.1595
     43 H10         4.0991   -2.3667    3.9773 H         1 <0>         0.3975
     44 H11         2.8769   -2.4670    5.1258 H         1 <0>         0.4098
     45 H12         3.7142   -1.5089   -2.9844 H         1 <0>         0.2205
     46 H13         6.4944    0.6106    0.6730 H         1 <0>         0.1263
     47 H14         9.5396    1.4687   -2.2163 H         1 <0>         0.1329
     48 H15         8.1972    0.4351   -3.9716 H         1 <0>         0.1371
     49 H16         7.6788    1.5032    2.2175 H         1 <0>         0.1850
     50 H17        10.7120    2.3625   -0.6990 H         1 <0>         0.1807
     51 H18        12.5970    2.6933    1.9648 H         1 <0>         0.0790
     52 H19        12.1552    3.9834    0.8208 H         1 <0>         0.0909
     53 H20        11.7066    4.1241    2.5376 H         1 <0>         0.0926
@<TRIPOS>BOND
     1    1    2 1
     2    1   35 1
     3    1   36 1
     4    1   37 1
     5    2    3 1
     6    2    4 1
     7    2   11 1
     8    4    9 ar
     9    4    5 ar
    10    5    6 ar
    11    5   38 1
    12    6    7 ar
    13    6   39 1
    14    7    8 ar
    15    7   40 1
    16    8    9 ar
    17    8   41 1
    18    9   10 1
    19   11   12 1
    20   12   16 2
    21   12   13 1
    22   13   14 2
    23   13   42 1
    24   14   15 1
    25   14   20 1
    26   15   16 1
    27   16   17 1
    28   17   18 2
    29   17   19 am
    30   19   43 1
    31   19   44 1
    32   20   24 1
    33   20   21 1
    34   21   22 2
    35   21   45 1
    36   22   23 1
    37   23   28 ar
    38   23   24 ar
    39   24   25 ar
    40   25   26 ar
    41   25   46 1
    42   26   27 ar
    43   26   29 1
    44   27   28 ar
    45   27   47 1
    46   28   48 1
    47   29   33 2
    48   29   30 1
    49   30   31 2
    50   30   49 1
    51   31   32 1
    52   32   33 1
    53   32   34 1
    54   33   50 1
    55   34   51 1
    56   34   52 1
    57   34   53 1
@<TRIPOS>MOLECULE
CHEMBL475763
   47    50     0     0     0
SMALL
USER_CHARGES

@<TRIPOS>ATOM
      1 C1         -0.0173    1.4248    0.0099 C.3       1 <0>         0.0222
      2 O1          0.0021   -0.0041    0.0020 O.3       1 <0>        -0.2996
      3 C2         -1.2015   -0.6381    0.0101 C.ar      1 <0>         0.1128
      4 C3         -2.3661    0.1012    0.0194 C.ar      1 <0>        -0.1252
      5 C4         -3.6027   -0.5507    0.0273 C.ar      1 <0>         0.0602
      6 C5         -3.6468   -1.9546    0.0256 C.ar      1 <0>         0.0544
      7 C6         -2.4686   -2.6876    0.0161 C.ar      1 <0>        -0.1737
      8 C7         -1.2512   -2.0332    0.0031 C.ar      1 <0>         0.1408
      9 O2         -0.0963   -2.7517   -0.0113 O.3       1 <0>        -0.2948
     10 C8         -0.2182   -4.1755   -0.0179 C.3       1 <0>         0.0213
     11 N1         -4.9894   -2.2941    0.0346 N.pl3     1 <0>        -0.4135
     12 C9         -5.7000   -1.1293    0.0413 C.2       1 <0>         0.2738
     13 N2         -4.8891   -0.1123    0.0371 N.2       1 <0>        -0.4657
     14 C10        -5.5155   -3.5826    0.0365 C.2       1 <0>         0.1186
     15 C11        -6.4727   -4.1169    0.8562 C.2       1 <0>        -0.2338
     16 C12        -6.8486   -5.4259    0.6811 C.2       1 <0>         0.1950
     17 C13        -6.2334   -6.1589   -0.3323 C.2       1 <0>        -0.2725
     18 S1         -5.1185   -4.9542   -1.0343 S.3       1 <0>         0.1485
     19 C14        -6.4419   -7.5045   -0.7095 C.2       1 <0>         0.6100
     20 O3         -7.2575   -8.1850   -0.1129 O.2       1 <0>        -0.5146
     21 N3         -5.7384   -8.0353   -1.7292 N.am      1 <0>        -0.8528
     22 O4         -7.7943   -5.9914    1.4745 O.3       1 <0>        -0.2619
     23 C15        -8.3707   -5.1643    2.4873 C.3       1 <0>         0.0918
     24 C16        -9.3919   -5.9567    3.2620 C.ar      1 <0>        -0.0449
     25 C17       -10.7189   -5.9897    2.8599 C.ar      1 <0>        -0.1309
     26 C18       -11.6275   -6.7268    3.5947 C.ar      1 <0>         0.1114
     27 N4        -11.2457   -7.3938    4.6667 N.ar      1 <0>        -0.4508
     28 C19        -9.9925   -7.3855    5.0788 C.ar      1 <0>         0.1223
     29 C20        -9.0262   -6.6742    4.3898 C.ar      1 <0>        -0.1124
     30 Br1        -9.5099   -8.3631    6.6239 Br        1 <0>         0.0011
     31 H1          1.0053    1.8021    0.0021 H         1 <0>         0.1050
     32 H2         -0.5445    1.7859   -0.8732 H         1 <0>         0.0588
     33 H3         -0.5275    1.7763    0.9067 H         1 <0>         0.0587
     34 H4         -2.3227    1.1803    0.0210 H         1 <0>         0.1508
     35 H5         -2.5028   -3.7670    0.0152 H         1 <0>         0.1403
     36 H6         -0.7692   -4.4889   -0.9045 H         1 <0>         0.0580
     37 H7          0.7747   -4.6250   -0.0294 H         1 <0>         0.1070
     38 H8         -0.7529   -4.4985    0.8753 H         1 <0>         0.0574
     39 H9         -6.7778   -1.0617    0.0488 H         1 <0>         0.2230
     40 H10        -6.9263   -3.5166    1.6309 H         1 <0>         0.1594
     41 H11        -5.0890   -7.4935   -2.2042 H         1 <0>         0.3973
     42 H12        -5.8815   -8.9591   -1.9882 H         1 <0>         0.4107
     43 H13        -7.5885   -4.8199    3.1638 H         1 <0>         0.0838
     44 H14        -8.8539   -4.3046    2.0229 H         1 <0>         0.0858
     45 H15       -11.0382   -5.4455    1.9833 H         1 <0>         0.1473
     46 H16       -12.6626   -6.7570    3.2880 H         1 <0>         0.1717
     47 H17        -8.0009   -6.6747    4.7290 H         1 <0>         0.1481
@<TRIPOS>BOND
     1    1    2 1
     2    1   31 1
     3    1   32 1
     4    1   33 1
     5    2    3 1
     6    3    8 ar
     7    3    4 ar
     8    4    5 ar
     9    4   34 1
    10    5   13 1
    11    5    6 ar
    12    6    7 ar
    13    6   11 1
    14    7    8 ar
    15    7   35 1
    16    8    9 1
    17    9   10 1
    18   10   36 1
    19   10   37 1
    20   10   38 1
    21   11   12 1
    22   11   14 1
    23   12   13 2
    24   12   39 1
    25   14   18 1
    26   14   15 2
    27   15   16 1
    28   15   40 1
    29   16   17 2
    30   16   22 1
    31   17   18 1
    32   17   19 1
    33   19   20 2
    34   19   21 am
    35   21   41 1
    36   21   42 1
    37   22   23 1
    38   23   24 1
    39   23   43 1
    40   23   44 1
    41   24   29 ar
    42   24   25 ar
    43   25   26 ar
    44   25   45 1
    45   26   27 ar
    46   26   46 1
    47   27   28 ar
    48   28   29 ar
    49   28   30 1
    50   29   47 1
@<TRIPOS>MOLECULE
CHEMBL475762
   47    50     0     0     0
SMALL
USER_CHARGES

@<TRIPOS>ATOM
      1 C1         -0.0173    1.4248    0.0099 C.3       1 <0>         0.0222
      2 O1          0.0021   -0.0041    0.0020 O.3       1 <0>        -0.2997
      3 C2          0.6064   -0.6077   -1.0568 C.ar      1 <0>         0.1127
      4 C3          1.1688    0.1605   -2.0550 C.ar      1 <0>        -0.1252
      5 C4          1.7901   -0.4601   -3.1426 C.ar      1 <0>         0.0601
      6 C5          1.8355   -1.8625   -3.2080 C.ar      1 <0>         0.0544
      7 C6          1.2663   -2.6248   -2.1979 C.ar      1 <0>        -0.1736
      8 C7          0.6590   -2.0011   -1.1242 C.ar      1 <0>         0.1405
      9 O2          0.1056   -2.7483   -0.1314 O.3       1 <0>        -0.2948
     10 C8          0.1943   -4.1685   -0.2621 C.3       1 <0>         0.0213
     11 N1          2.5039   -2.1682   -4.3818 N.pl3     1 <0>        -0.4134
     12 C9          2.8350   -0.9859   -4.9771 C.2       1 <0>         0.2741
     13 N2          2.4177    0.0103   -4.2526 N.2       1 <0>        -0.4661
     14 C10         2.7852   -3.4430   -4.8640 C.2       1 <0>         0.1181
     15 C11         2.5620   -3.9560   -6.1133 C.2       1 <0>        -0.2332
     16 C12         2.9218   -5.2546   -6.3774 C.2       1 <0>         0.1958
     17 C13         3.5035   -5.9992   -5.3527 C.2       1 <0>        -0.2740
     18 S1          3.5356   -4.8205   -4.0123 S.3       1 <0>         0.1465
     19 C14         3.9553   -7.3379   -5.3715 C.2       1 <0>         0.6101
     20 O3          3.8568   -7.9998   -6.3896 O.2       1 <0>        -0.5149
     21 N3          4.4952   -7.8826   -4.2632 N.am      1 <0>        -0.8530
     22 O4          2.7161   -5.7989   -7.6041 O.3       1 <0>        -0.2618
     23 C15         2.1142   -4.9611   -8.5930 C.3       1 <0>         0.0915
     24 C16         1.9659   -5.7304   -9.8804 C.ar      1 <0>        -0.0529
     25 C17         2.9774   -5.7287  -10.8287 C.ar      1 <0>        -0.1460
     26 C18         2.8058   -6.4458  -11.9976 C.ar      1 <0>         0.0996
     27 N4          1.6967   -7.1251  -12.2155 N.ar      1 <0>        -0.4756
     28 C19         0.7142   -7.1493  -11.3363 C.ar      1 <0>         0.0996
     29 C20         0.8171   -6.4612  -10.1421 C.ar      1 <0>        -0.1463
     30 H1          1.0053    1.8021    0.0021 H         1 <0>         0.0587
     31 H2         -0.5445    1.7859   -0.8732 H         1 <0>         0.0586
     32 H3         -0.5275    1.7763    0.9067 H         1 <0>         0.1049
     33 H4          1.1289    1.2382   -1.9966 H         1 <0>         0.1508
     34 H5          1.3011   -3.7030   -2.2486 H         1 <0>         0.1403
     35 H6         -0.3070   -4.4811   -1.1781 H         1 <0>         0.0573
     36 H7          1.2425   -4.4650   -0.3022 H         1 <0>         0.0580
     37 H8         -0.2849   -4.6428    0.5943 H         1 <0>         0.1070
     38 H9          3.3661   -0.8913   -5.9127 H         1 <0>         0.2229
     39 H10         2.1084   -3.3472   -6.8814 H         1 <0>         0.1591
     40 H11         4.5736   -7.3556   -3.4526 H         1 <0>         0.3972
     41 H12         4.8053   -8.8015   -4.2761 H         1 <0>         0.4104
     42 H13         1.1320   -4.6388   -8.2471 H         1 <0>         0.0805
     43 H14         2.7444   -4.0880   -8.7620 H         1 <0>         0.0812
     44 H15         3.8877   -5.1737  -10.6562 H         1 <0>         0.1380
     45 H16         3.5889   -6.4496  -12.7413 H         1 <0>         0.1608
     46 H17        -0.1795   -7.7168  -11.5501 H         1 <0>         0.1607
     47 H18         0.0110   -6.4889   -9.4239 H         1 <0>         0.1375
@<TRIPOS>BOND
     1    1    2 1
     2    1   30 1
     3    1   31 1
     4    1   32 1
     5    2    3 1
     6    3    8 ar
     7    3    4 ar
     8    4    5 ar
     9    4   33 1
    10    5   13 1
    11    5    6 ar
    12    6    7 ar
    13    6   11 1
    14    7    8 ar
    15    7   34 1
    16    8    9 1
    17    9   10 1
    18   10   35 1
    19   10   36 1
    20   10   37 1
    21   11   12 1
    22   11   14 1
    23   12   13 2
    24   12   38 1
    25   14   18 1
    26   14   15 2
    27   15   16 1
    28   15   39 1
    29   16   17 2
    30   16   22 1
    31   17   18 1
    32   17   19 1
    33   19   20 2
    34   19   21 am
    35   21   40 1
    36   21   41 1
    37   22   23 1
    38   23   24 1
    39   23   42 1
    40   23   43 1
    41   24   29 ar
    42   24   25 ar
    43   25   26 ar
    44   25   44 1
    45   26   27 ar
    46   26   45 1
    47   27   28 ar
    48   28   29 ar
    49   28   46 1
    50   29   47 1
@<TRIPOS>MOLECULE
CHEMBL475762__1
   48    51     0     0     0
SMALL
USER_CHARGES

@<TRIPOS>ATOM
      1 C1         -0.0173    1.4248    0.0099 C.3       1 <0>         0.0212
      2 O1          0.0021   -0.0041    0.0020 O.3       1 <0>        -0.2980
      3 C2          0.6064   -0.6077   -1.0568 C.ar      1 <0>         0.1162
      4 C3          1.1688    0.1605   -2.0550 C.ar      1 <0>        -0.1242
      5 C4          1.7901   -0.4601   -3.1426 C.ar      1 <0>         0.0605
      6 C5          1.8355   -1.8625   -3.2080 C.ar      1 <0>         0.0525
      7 C6          1.2663   -2.6248   -2.1979 C.ar      1 <0>        -0.1774
      8 C7          0.6590   -2.0011   -1.1242 C.ar      1 <0>         0.1453
      9 O2          0.1056   -2.7483   -0.1314 O.3       1 <0>        -0.2923
     10 C8          0.1943   -4.1685   -0.2621 C.3       1 <0>         0.0214
     11 N1          2.5039   -2.1682   -4.3818 N.pl3     1 <0>        -0.4176
     12 C9          2.8350   -0.9859   -4.9771 C.2       1 <0>         0.2692
     13 N2          2.4177    0.0103   -4.2526 N.2       1 <0>        -0.4592
     14 C10         2.7852   -3.4430   -4.8640 C.2       1 <0>         0.1302
     15 C11         2.5620   -3.9560   -6.1133 C.2       1 <0>        -0.2437
     16 C12         2.9218   -5.2546   -6.3774 C.2       1 <0>         0.1871
     17 C13         3.5035   -5.9992   -5.3527 C.2       1 <0>        -0.2675
     18 S1          3.5356   -4.8205   -4.0123 S.3       1 <0>         0.1710
     19 C14         3.9553   -7.3379   -5.3715 C.2       1 <0>         0.6131
     20 O3          3.8568   -7.9998   -6.3896 O.2       1 <0>        -0.5264
     21 N3          4.4952   -7.8826   -4.2632 N.am      1 <0>        -0.8482
     22 O4          2.7161   -5.7989   -7.6041 O.3       1 <0>        -0.2650
     23 C15         2.1142   -4.9611   -8.5930 C.3       1 <0>         0.0688
     24 C16         1.9659   -5.7304   -9.8804 C.ar      1 <0>         0.0359
     25 C17         2.9774   -5.7287  -10.8287 C.ar      1 <0>        -0.1039
     26 C18         2.8058   -6.4458  -11.9976 C.ar      1 <0>         0.1360
     27 N4          1.6967   -7.1251  -12.2155 N.ar      1 <0>        -0.4382
     28 C19         0.7142   -7.1493  -11.3363 C.ar      1 <0>         0.1361
     29 C20         0.8171   -6.4612  -10.1421 C.ar      1 <0>        -0.1041
     30 H1          1.0053    1.8021    0.0021 H         1 <0>         0.0601
     31 H2         -0.5445    1.7859   -0.8732 H         1 <0>         0.0595
     32 H3         -0.5275    1.7763    0.9067 H         1 <0>         0.1075
     33 H4          1.1289    1.2382   -1.9966 H         1 <0>         0.1528
     34 H5          1.3011   -3.7030   -2.2486 H         1 <0>         0.1395
     35 H6         -0.3070   -4.4811   -1.1781 H         1 <0>         0.0564
     36 H7          1.2425   -4.4650   -0.3022 H         1 <0>         0.0580
     37 H8         -0.2849   -4.6428    0.5943 H         1 <0>         0.1089
     38 H9          3.3661   -0.8913   -5.9127 H         1 <0>         0.2227
     39 H10         2.1084   -3.3472   -6.8814 H         1 <0>         0.1588
     40 H11         4.5736   -7.3556   -3.4526 H         1 <0>         0.4005
     41 H12         4.8053   -8.8015   -4.2761 H         1 <0>         0.4135
     42 H13         1.1320   -4.6388   -8.2471 H         1 <0>         0.1001
     43 H14         2.7444   -4.0880   -8.7620 H         1 <0>         0.1009
     44 H15         3.8877   -5.1737  -10.6562 H         1 <0>         0.1886
     45 H16         3.5889   -6.4496  -12.7413 H         1 <0>         0.2152
     46 H17        -0.1795   -7.7168  -11.5501 H         1 <0>         0.2151
     47 H18         0.0110   -6.4889   -9.4239 H         1 <0>         0.1882
     48 H19         1.6010   -7.6197  -13.0445 H         1 <0>         0.4550
@<TRIPOS>BOND
     1    1    2 1
     2    1   30 1
     3    1   31 1
     4    1   32 1
     5    2    3 1
     6    3    8 ar
     7    3    4 ar
     8    4    5 ar
     9    4   33 1
    10    5   13 1
    11    5    6 ar
    12    6    7 ar
    13    6   11 1
    14    7    8 ar
    15    7   34 1
    16    8    9 1
    17    9   10 1
    18   10   35 1
    19   10   36 1
    20   10   37 1
    21   11   12 1
    22   11   14 1
    23   12   13 2
    24   12   38 1
    25   14   18 1
    26   14   15 2
    27   15   16 1
    28   15   39 1
    29   16   17 2
    30   16   22 1
    31   17   18 1
    32   17   19 1
    33   19   20 2
    34   19   21 am
    35   21   40 1
    36   21   41 1
    37   22   23 1
    38   23   24 1
    39   23   42 1
    40   23   43 1
    41   24   29 ar
    42   24   25 ar
    43   25   26 ar
    44   25   44 1
    45   26   27 ar
    46   26   45 1
    47   27   28 ar
    48   27   48 1
    49   28   29 ar
    50   28   46 1
    51   29   47 1
@<TRIPOS>MOLECULE
CHEMBL225519
   27    29     0     0     0
SMALL
USER_CHARGES

@<TRIPOS>ATOM
      1 C1         -0.0169    1.3959    0.0097 C.ar      1 <0>        -0.1618
      2 C2          1.1798    2.0806    0.0020 C.ar      1 <0>         0.1119
      3 N1          2.3304    1.4343   -0.0125 N.ar      1 <0>        -0.4905
      4 C3          2.3933    0.1160   -0.0202 C.ar      1 <0>         0.1111
      5 C4          1.2454   -0.6477   -0.0138 C.ar      1 <0>        -0.1847
      6 C5          0.0021   -0.0041    0.0020 C.ar      1 <0>         0.0378
      7 C6         -1.2554   -0.7809    0.0103 C.2       1 <0>         0.0153
      8 C7         -2.5147   -0.2575    0.0197 C.2       1 <0>        -0.0781
      9 C8         -3.4022   -1.3410    0.0250 C.2       1 <0>        -0.2330
     10 C9         -2.6397   -2.5047    0.0203 C.2       1 <0>         0.0774
     11 N2         -1.3521   -2.1560    0.0039 N.pl3     1 <0>        -0.5120
     12 H1         -0.6030   -2.7721   -0.0077 H         1 <0>         0.4194
     13 C10        -3.2940   -3.8624    0.0294 C.3       1 <0>        -0.0705
     14 C11        -4.6415   -3.7554    0.7441 C.3       1 <0>         0.1240
     15 N3         -5.4275   -2.6111    0.3039 N.am      1 <0>        -0.7361
     16 C12        -4.8742   -1.4055    0.0321 C.2       1 <0>         0.5975
     17 O1         -5.5576   -0.4253   -0.1944 O.2       1 <0>        -0.5324
     18 H2         -0.9547    1.9314    0.0260 H         1 <0>         0.1422
     19 H3          1.1756    3.1606    0.0074 H         1 <0>         0.1619
     20 H4          3.3571   -0.3712   -0.0320 H         1 <0>         0.1582
     21 H5          1.3044   -1.7261   -0.0208 H         1 <0>         0.1271
     22 H6         -2.7770    0.7902    0.0231 H         1 <0>         0.1541
     23 H7         -3.4497   -4.1999   -0.9953 H         1 <0>         0.0965
     24 H8         -2.6562   -4.5718    0.5568 H         1 <0>         0.0985
     25 H9         -5.2114   -4.6656    0.5573 H         1 <0>         0.0946
     26 H10        -4.4646   -3.6684    1.8161 H         1 <0>         0.0675
     27 H11        -6.3862   -2.7170    0.2008 H         1 <0>         0.4040
@<TRIPOS>BOND
     1    1    6 ar
     2    1    2 ar
     3    1   18 1
     4    2    3 ar
     5    2   19 1
     6    3    4 ar
     7    4    5 ar
     8    4   20 1
     9    5    6 ar
    10    5   21 1
    11    6    7 1
    12    7   11 1
    13    7    8 2
    14    8    9 1
    15    8   22 1
    16    9   16 1
    17    9   10 2
    18   10   11 1
    19   10   13 1
    20   11   12 1
    21   13   14 1
    22   13   23 1
    23   13   24 1
    24   14   15 1
    25   14   25 1
    26   14   26 1
    27   15   16 am
    28   15   27 1
    29   16   17 2
@<TRIPOS>MOLECULE
CHEMBL222419
   51    54     0     0     0
SMALL
USER_CHARGES

@<TRIPOS>ATOM
      1 C1          0.3001    1.2716   -0.1337 C.3       1 <0>        -0.1755
      2 C2          0.0658   -0.2352   -0.0099 C.3       1 <0>         0.1164
      3 H1          0.5176   -0.7444   -0.8612 H         1 <0>         0.0892
      4 C3          0.6912   -0.7377    1.2658 C.ar      1 <0>        -0.0847
      5 C4         -0.0758   -0.8638    2.4089 C.ar      1 <0>        -0.0764
      6 C5          0.4977   -1.3247    3.5790 C.ar      1 <0>        -0.1135
      7 C6          1.8388   -1.6598    3.6069 C.ar      1 <0>        -0.1009
      8 C7          2.6066   -1.5342    2.4649 C.ar      1 <0>        -0.1108
      9 C8          2.0317   -1.0782    1.2917 C.ar      1 <0>        -0.0269
     10 Cl1         2.9941   -0.9264   -0.1451 Cl        1 <0>        -0.0671
     11 O1         -1.3386   -0.4987    0.0122 O.3       1 <0>        -0.2593
     12 C9         -1.9644   -0.6065   -1.1879 C.2       1 <0>         0.2013
     13 C10        -1.2920   -0.3553   -2.3585 C.2       1 <0>        -0.2343
     14 C11        -1.9574   -0.4746   -3.5487 C.2       1 <0>         0.1188
     15 S1         -3.5943   -0.9579   -3.0261 S.3       1 <0>         0.1429
     16 C12        -3.3049   -0.9806   -1.2646 C.2       1 <0>        -0.2764
     17 C13        -4.2024   -1.2946   -0.2194 C.2       1 <0>         0.6123
     18 O2         -3.8263   -1.2555    0.9388 O.2       1 <0>        -0.5171
     19 N1         -5.4745   -1.6374   -0.5036 N.am      1 <0>        -0.8532
     20 N2         -1.4790   -0.2703   -4.8395 N.pl3     1 <0>        -0.4129
     21 C14        -0.7851    0.8176   -5.2832 C.2       1 <0>         0.2745
     22 N3         -0.4946    0.6777   -6.5432 N.2       1 <0>        -0.4661
     23 C15        -0.9803   -0.5076   -6.9976 C.ar      1 <0>         0.0602
     24 C16        -1.6130   -1.1358   -5.9123 C.ar      1 <0>         0.0549
     25 C17        -2.2043   -2.3802   -6.0770 C.ar      1 <0>        -0.1733
     26 C18        -2.1666   -3.0021   -7.3109 C.ar      1 <0>         0.1401
     27 C19        -1.5358   -2.3839   -8.3920 C.ar      1 <0>         0.1123
     28 C20        -0.9520   -1.1430   -8.2424 C.ar      1 <0>        -0.1252
     29 O3         -1.5041   -3.0050   -9.6020 O.3       1 <0>        -0.2998
     30 C21        -0.8429   -2.3182  -10.6665 C.3       1 <0>         0.0223
     31 O4         -2.7462   -4.2220   -7.4724 O.3       1 <0>        -0.2950
     32 C22        -3.3742   -4.7987   -6.3256 C.3       1 <0>         0.0213
     33 H2          1.3713    1.4726   -0.1506 H         1 <0>         0.0809
     34 H3         -0.1523    1.6350   -1.0564 H         1 <0>         0.0684
     35 H4         -0.1517    1.7808    0.7176 H         1 <0>         0.0765
     36 H5         -1.1234   -0.6019    2.3877 H         1 <0>         0.1457
     37 H6         -0.1019   -1.4227    4.4719 H         1 <0>         0.1334
     38 H7          2.2864   -2.0195    4.5216 H         1 <0>         0.1350
     39 H8          3.6543   -1.7957    2.4869 H         1 <0>         0.1371
     40 H9         -0.2514   -0.0670   -2.3403 H         1 <0>         0.1603
     41 H10        -5.7739   -1.6685   -1.4257 H         1 <0>         0.3973
     42 H11        -6.0905   -1.8530    0.2140 H         1 <0>         0.4101
     43 H12        -0.5167    1.6701   -4.6769 H         1 <0>         0.2225
     44 H13        -2.6927   -2.8621   -5.2429 H         1 <0>         0.1403
     45 H14        -0.4641   -0.6693   -9.0814 H         1 <0>         0.1506
     46 H15        -0.8901   -2.9217  -11.5729 H         1 <0>         0.1047
     47 H16        -1.3337   -1.3608  -10.8415 H         1 <0>         0.0587
     48 H17         0.1996   -2.1482  -10.3971 H         1 <0>         0.0584
     49 H18        -2.6365   -4.9275   -5.5336 H         1 <0>         0.0573
     50 H19        -4.1699   -4.1402   -5.9774 H         1 <0>         0.0579
     51 H20        -3.7953   -5.7684   -6.5911 H         1 <0>         0.1068
@<TRIPOS>BOND
     1    1    2 1
     2    1   33 1
     3    1   34 1
     4    1   35 1
     5    2    3 1
     6    2    4 1
     7    2   11 1
     8    4    9 ar
     9    4    5 ar
    10    5    6 ar
    11    5   36 1
    12    6    7 ar
    13    6   37 1
    14    7    8 ar
    15    7   38 1
    16    8    9 ar
    17    8   39 1
    18    9   10 1
    19   11   12 1
    20   12   16 2
    21   12   13 1
    22   13   14 2
    23   13   40 1
    24   14   15 1
    25   14   20 1
    26   15   16 1
    27   16   17 1
    28   17   18 2
    29   17   19 am
    30   19   41 1
    31   19   42 1
    32   20   24 1
    33   20   21 1
    34   21   22 2
    35   21   43 1
    36   22   23 1
    37   23   28 ar
    38   23   24 ar
    39   24   25 ar
    40   25   26 ar
    41   25   44 1
    42   26   27 ar
    43   26   31 1
    44   27   28 ar
    45   27   29 1
    46   28   45 1
    47   29   30 1
    48   30   46 1
    49   30   47 1
    50   30   48 1
    51   31   32 1
    52   32   49 1
    53   32   50 1
    54   32   51 1
@<TRIPOS>MOLECULE
CHEMBL1209016
   74    79     0     0     0
SMALL
USER_CHARGES

@<TRIPOS>ATOM
      1 C1         -0.0052    1.5022    0.2557 C.3       1 <0>        -0.1755
      2 C2          0.0030   -0.0065    0.0012 C.3       1 <0>         0.1178
      3 H1          0.5787   -0.5035    0.7820 H         1 <0>         0.0890
      4 C3          0.6297   -0.2862   -1.3404 C.ar      1 <0>        -0.0863
      5 C4         -0.1684   -0.4296   -2.4599 C.ar      1 <0>        -0.0767
      6 C5          0.4063   -0.6861   -3.6905 C.ar      1 <0>        -0.1129
      7 C6          1.7797   -0.7994   -3.8026 C.ar      1 <0>        -0.0999
      8 C7          2.5787   -0.6563   -2.6841 C.ar      1 <0>        -0.1101
      9 C8          2.0043   -0.3938   -1.4529 C.ar      1 <0>        -0.0266
     10 Cl1         3.0077   -0.2072   -0.0486 Cl        1 <0>        -0.0679
     11 O1         -1.3386   -0.4987    0.0122 O.3       1 <0>        -0.2586
     12 C9         -1.8684   -0.8173    1.2210 C.2       1 <0>         0.2002
     13 C10        -1.1785   -0.5658    2.3813 C.2       1 <0>        -0.2309
     14 C11        -1.7460   -0.9014    3.5808 C.2       1 <0>         0.1120
     15 S1         -3.3113   -1.5995    3.0825 S.3       1 <0>         0.1461
     16 C12        -3.1295   -1.4030    1.3173 C.2       1 <0>        -0.2739
     17 C13        -4.0295   -1.7528    0.2856 C.2       1 <0>         0.6112
     18 O2         -3.7333   -1.5445   -0.8776 O.2       1 <0>        -0.5147
     19 N1         -5.2155   -2.3168    0.5884 N.am      1 <0>        -0.8532
     20 N2         -1.2325   -0.7393    4.8642 N.pl3     1 <0>        -0.4139
     21 C14         0.0069   -1.1132    5.2927 C.2       1 <0>         0.2838
     22 N3          0.1549   -0.8114    6.5493 N.2       1 <0>        -0.4720
     23 C15        -0.9777   -0.2232    7.0161 C.ar      1 <0>         0.0640
     24 C16        -1.8824   -0.1633    5.9418 C.ar      1 <0>         0.0418
     25 C17        -3.1392    0.3987    6.1193 C.ar      1 <0>        -0.0963
     26 C18        -3.5008    0.9016    7.3490 C.ar      1 <0>        -0.0929
     27 C19        -2.6082    0.8498    8.4229 C.ar      1 <0>        -0.0010
     28 C20        -1.3517    0.2845    8.2611 C.ar      1 <0>        -0.0578
     29 C21        -3.0091    1.3953    9.7448 C.2       1 <0>        -0.1860
     30 C22        -2.2184    1.4181   10.9099 C.2       1 <0>         0.0750
     31 N4         -2.9167    1.9755   11.8637 N.2       1 <0>        -0.2962
     32 N5         -4.1705    2.3275   11.3494 N.pl3     1 <0>        -0.3780
     33 C23        -4.2079    1.9705   10.0494 C.2       1 <0>         0.0747
     34 C24        -5.2525    2.9773   12.0933 C.3       1 <0>         0.1402
     35 C25        -5.5803    2.1536   13.3403 C.3       1 <0>         0.0431
     36 N6         -6.6652    2.8052   14.0862 N.3       1 <0>        -0.5381
     37 C26        -6.2269    4.0973   14.6324 C.3       1 <0>         0.0171
     38 C27        -7.4002    4.7691   15.3492 C.3       1 <0>        -0.0020
     39 N7         -7.8773    3.8974   16.4308 N.4       1 <0>        -0.3891
     40 C28        -8.3345    2.6203   15.8672 C.3       1 <0>        -0.0018
     41 C29        -7.1690    1.9307   15.1547 C.3       1 <0>         0.0268
     42 C30        -8.9919    4.5506   17.1302 C.3       1 <0>        -0.0458
     43 H2          1.0180    1.8776    0.2474 H         1 <0>         0.0811
     44 H3         -0.5810    1.9992   -0.5250 H         1 <0>         0.0765
     45 H4         -0.4586    1.7045    1.2261 H         1 <0>         0.0671
     46 H5         -1.2413   -0.3416   -2.3729 H         1 <0>         0.1452
     47 H6         -0.2177   -0.7985   -4.5648 H         1 <0>         0.1338
     48 H7          2.2282   -1.0002   -4.7643 H         1 <0>         0.1358
     49 H8          3.6514   -0.7451   -2.7717 H         1 <0>         0.1378
     50 H9         -0.2003   -0.1093    2.3478 H         1 <0>         0.1601
     51 H10        -5.4513   -2.4827    1.5146 H         1 <0>         0.3968
     52 H11        -5.8333   -2.5569   -0.1198 H         1 <0>         0.4106
     53 H12         0.7561   -1.5906    4.6786 H         1 <0>         0.2226
     54 H13        -3.8332    0.4419    5.2929 H         1 <0>         0.1282
     55 H14        -4.4792    1.3386    7.4841 H         1 <0>         0.1325
     56 H15        -0.6625    0.2469    9.0917 H         1 <0>         0.1360
     57 H16        -1.2107    1.0403   10.9998 H         1 <0>         0.1897
     58 H17        -5.0376    2.1121    9.3726 H         1 <0>         0.1798
     59 H18        -4.9389    3.9779   12.3909 H         1 <0>         0.0844
     60 H19        -6.1374    3.0469   11.4608 H         1 <0>         0.1087
     61 H20        -5.8938    1.1530   13.0427 H         1 <0>         0.0952
     62 H21        -4.6953    2.0840   13.9728 H         1 <0>         0.0654
     63 H22        -5.4130    3.9361   15.3393 H         1 <0>         0.0656
     64 H23        -5.8823    4.7374   13.8202 H         1 <0>         0.1245
     65 H24        -7.0734    5.7212   15.7673 H         1 <0>         0.1372
     66 H25        -8.2087    4.9426   14.6390 H         1 <0>         0.1386
     67 H26        -8.7004    1.9794   16.6694 H         1 <0>         0.1376
     68 H27        -9.1381    2.8048   15.1543 H         1 <0>         0.1386
     69 H28        -7.5116    0.9900   14.7236 H         1 <0>         0.1252
     70 H29        -6.3706    1.7338   15.8702 H         1 <0>         0.0639
     71 H30        -9.8040    4.7349   16.4270 H         1 <0>         0.1235
     72 H31        -9.3461    3.9038   17.9329 H         1 <0>         0.1248
     73 H32        -8.6525    5.4977   17.5497 H         1 <0>         0.1248
     74 H33        -7.1255    3.7275   17.0820 H         1 <0>         0.4234
@<TRIPOS>BOND
     1    1    2 1
     2    1   43 1
     3    1   44 1
     4    1   45 1
     5    2    3 1
     6    2    4 1
     7    2   11 1
     8    4    9 ar
     9    4    5 ar
    10    5    6 ar
    11    5   46 1
    12    6    7 ar
    13    6   47 1
    14    7    8 ar
    15    7   48 1
    16    8    9 ar
    17    8   49 1
    18    9   10 1
    19   11   12 1
    20   12   16 2
    21   12   13 1
    22   13   14 2
    23   13   50 1
    24   14   15 1
    25   14   20 1
    26   15   16 1
    27   16   17 1
    28   17   18 2
    29   17   19 am
    30   19   51 1
    31   19   52 1
    32   20   24 1
    33   20   21 1
    34   21   22 2
    35   21   53 1
    36   22   23 1
    37   23   28 ar
    38   23   24 ar
    39   24   25 ar
    40   25   26 ar
    41   25   54 1
    42   26   27 ar
    43   26   55 1
    44   27   28 ar
    45   27   29 1
    46   28   56 1
    47   29   33 2
    48   29   30 1
    49   30   31 2
    50   30   57 1
    51   31   32 1
    52   32   33 1
    53   32   34 1
    54   33   58 1
    55   34   35 1
    56   34   59 1
    57   34   60 1
    58   35   36 1
    59   35   61 1
    60   35   62 1
    61   36   41 1
    62   36   37 1
    63   37   38 1
    64   37   63 1
    65   37   64 1
    66   38   39 1
    67   38   65 1
    68   38   66 1
    69   39   40 1
    70   39   42 1
    71   39   74 1
    72   40   41 1
    73   40   67 1
    74   40   68 1
    75   41   69 1
    76   41   70 1
    77   42   71 1
    78   42   72 1
    79   42   73 1
@<TRIPOS>MOLECULE
CHEMBL1209015
   69    74     0     0     0
SMALL
USER_CHARGES

@<TRIPOS>ATOM
      1 C1         -0.2375    1.5010   -0.1010 C.3       1 <0>        -0.1756
      2 C2          0.0024   -0.0065    0.0031 C.3       1 <0>         0.1172
      3 H1         -0.9538   -0.5206    0.1014 H         1 <0>         0.0893
      4 C3          0.8554   -0.2972    1.2110 C.ar      1 <0>        -0.0845
      5 C4          2.2260   -0.4166    1.0767 C.ar      1 <0>        -0.0765
      6 C5          3.0086   -0.6832    2.1845 C.ar      1 <0>        -0.1134
      7 C6          2.4211   -0.8305    3.4274 C.ar      1 <0>        -0.1011
      8 C7          1.0510   -0.7113    3.5628 C.ar      1 <0>        -0.1107
      9 C8          0.2676   -0.4388    2.4552 C.ar      1 <0>        -0.0268
     10 Cl1        -1.4529   -0.2824    2.6256 Cl        1 <0>        -0.0671
     11 O1          0.6709   -0.4649   -1.1737 O.3       1 <0>        -0.2595
     12 C9         -0.1062   -0.7743   -2.2432 C.2       1 <0>         0.2011
     13 C10        -1.4598   -0.5443   -2.2209 C.2       1 <0>        -0.2357
     14 C11        -2.2098   -0.8698   -3.3187 C.2       1 <0>         0.1190
     15 S1         -0.9851   -1.5266   -4.4387 S.3       1 <0>         0.1471
     16 C12         0.4497   -1.3286   -3.3950 C.2       1 <0>        -0.2779
     17 C13         1.7984   -1.6520   -3.6653 C.2       1 <0>         0.6125
     18 O2          2.6546   -1.4472   -2.8232 O.2       1 <0>        -0.5177
     19 N1          2.1376   -2.1872   -4.8549 N.am      1 <0>        -0.8534
     20 N2         -3.5804   -0.7251   -3.5125 N.pl3     1 <0>        -0.4156
     21 C14        -4.5650   -1.1314   -2.6611 C.2       1 <0>         0.2790
     22 N3         -5.7320   -0.8379   -3.1552 N.2       1 <0>        -0.4708
     23 C15        -5.5794   -0.2231   -4.3574 C.ar      1 <0>         0.0640
     24 C16        -4.1979   -0.1367   -4.6025 C.ar      1 <0>         0.0381
     25 C17        -3.7323    0.4561   -5.7681 C.ar      1 <0>        -0.0980
     26 C18        -4.6243    0.9635   -6.6859 C.ar      1 <0>        -0.0920
     27 C19        -5.9997    0.8856   -6.4510 C.ar      1 <0>         0.0103
     28 C20        -6.4786    0.2895   -5.2935 C.ar      1 <0>        -0.0616
     29 C21        -6.9526    1.4363   -7.4481 C.2       1 <0>        -0.2001
     30 C22        -8.3572    1.4353   -7.3456 C.2       1 <0>         0.0680
     31 N4         -8.8429    2.0066   -8.4158 N.2       1 <0>        -0.2907
     32 N5         -7.7765    2.3919   -9.2372 N.pl3     1 <0>        -0.3670
     33 C23        -6.6263    2.0404   -8.6268 C.2       1 <0>         0.0778
     34 C24        -7.8901    3.0660  -10.5330 C.3       1 <0>         0.1370
     35 C25        -8.7934    2.2464  -11.4567 C.3       1 <0>         0.0443
     36 N6         -8.9074    2.9224  -12.7560 N.3       1 <0>        -0.5358
     37 C26        -9.6211    4.2009  -12.6239 C.3       1 <0>         0.0106
     38 C27        -9.6648    4.8979  -13.9863 C.3       1 <0>         0.0633
     39 O3        -10.2815    4.0296  -14.9409 O.3       1 <0>        -0.3840
     40 C28        -9.6118    2.7754  -15.0952 C.3       1 <0>         0.0634
     41 C29        -9.5676    2.0569  -13.7441 C.3       1 <0>         0.0188
     42 H2          0.7187    2.0151   -0.1993 H         1 <0>         0.0759
     43 H3         -0.8545    1.7112   -0.9747 H         1 <0>         0.0683
     44 H4         -0.7474    1.8506    0.7966 H         1 <0>         0.0805
     45 H5          2.6855   -0.3020    0.1061 H         1 <0>         0.1455
     46 H6          4.0793   -0.7767    2.0791 H         1 <0>         0.1332
     47 H7          3.0330   -1.0391    4.2925 H         1 <0>         0.1349
     48 H8          0.5921   -0.8268    4.5336 H         1 <0>         0.1372
     49 H9         -1.9267   -0.1124   -1.3481 H         1 <0>         0.1595
     50 H10         1.4559   -2.3503   -5.5254 H         1 <0>         0.3974
     51 H11         3.0634   -2.4092   -5.0405 H         1 <0>         0.4098
     52 H12        -4.4001   -1.6254   -1.7149 H         1 <0>         0.2210
     53 H13        -2.6704    0.5195   -5.9549 H         1 <0>         0.1270
     54 H14        -4.2593    1.4245   -7.5918 H         1 <0>         0.1339
     55 H15        -7.5418    0.2317   -5.1128 H         1 <0>         0.1362
     56 H16        -8.9327    1.0320   -6.5255 H         1 <0>         0.1870
     57 H17        -5.6278    2.2052   -9.0040 H         1 <0>         0.1786
     58 H18        -8.3201    4.0574  -10.3903 H         1 <0>         0.0873
     59 H19        -6.9012    3.1600  -10.9816 H         1 <0>         0.1073
     60 H20        -8.3635    1.2551  -11.5994 H         1 <0>         0.0830
     61 H21        -9.7824    2.1524  -11.0081 H         1 <0>         0.0547
     62 H22       -10.6377    4.0160  -12.2769 H         1 <0>         0.0483
     63 H23        -9.1008    4.8358  -11.9068 H         1 <0>         0.0880
     64 H24       -10.2422    5.8188  -13.9057 H         1 <0>         0.1004
     65 H25        -8.6499    5.1309  -14.3086 H         1 <0>         0.0615
     66 H26       -10.1509    2.1613  -15.8166 H         1 <0>         0.1009
     67 H27        -8.5954    2.9467  -15.4498 H         1 <0>         0.0617
     68 H28        -9.0083    1.1267  -13.8446 H         1 <0>         0.0887
     69 H29       -10.5834    1.8377  -13.4150 H         1 <0>         0.0470
@<TRIPOS>BOND
     1    1    2 1
     2    1   42 1
     3    1   43 1
     4    1   44 1
     5    2    3 1
     6    2    4 1
     7    2   11 1
     8    4    9 ar
     9    4    5 ar
    10    5    6 ar
    11    5   45 1
    12    6    7 ar
    13    6   46 1
    14    7    8 ar
    15    7   47 1
    16    8    9 ar
    17    8   48 1
    18    9   10 1
    19   11   12 1
    20   12   16 2
    21   12   13 1
    22   13   14 2
    23   13   49 1
    24   14   15 1
    25   14   20 1
    26   15   16 1
    27   16   17 1
    28   17   18 2
    29   17   19 am
    30   19   50 1
    31   19   51 1
    32   20   24 1
    33   20   21 1
    34   21   22 2
    35   21   52 1
    36   22   23 1
    37   23   28 ar
    38   23   24 ar
    39   24   25 ar
    40   25   26 ar
    41   25   53 1
    42   26   27 ar
    43   26   54 1
    44   27   28 ar
    45   27   29 1
    46   28   55 1
    47   29   33 2
    48   29   30 1
    49   30   31 2
    50   30   56 1
    51   31   32 1
    52   32   33 1
    53   32   34 1
    54   33   57 1
    55   34   35 1
    56   34   58 1
    57   34   59 1
    58   35   36 1
    59   35   60 1
    60   35   61 1
    61   36   41 1
    62   36   37 1
    63   37   38 1
    64   37   62 1
    65   37   63 1
    66   38   39 1
    67   38   64 1
    68   38   65 1
    69   39   40 1
    70   40   41 1
    71   40   66 1
    72   40   67 1
    73   41   68 1
    74   41   69 1
@<TRIPOS>MOLECULE
CHEMBL1209015__1
   70    75     0     0     0
SMALL
USER_CHARGES

@<TRIPOS>ATOM
      1 C1          0.1876    1.5069   -0.1238 C.3       1 <0>        -0.1756
      2 C2          0.0010   -0.0065    0.0017 C.3       1 <0>         0.1180
      3 H1          0.4017   -0.4968   -0.8856 H         1 <0>         0.0889
      4 C3         -1.4668   -0.3227    0.1306 C.ar      1 <0>        -0.0870
      5 C4         -2.0336   -0.4760    1.3820 C.ar      1 <0>        -0.0768
      6 C5         -3.3799   -0.7660    1.5004 C.ar      1 <0>        -0.1126
      7 C6         -4.1604   -0.9029    0.3674 C.ar      1 <0>        -0.0993
      8 C7         -3.5948   -0.7499   -0.8842 C.ar      1 <0>        -0.1099
      9 C8         -2.2484   -0.4539   -1.0032 C.ar      1 <0>        -0.0265
     10 Cl1        -1.5386   -0.2550   -2.5750 Cl        1 <0>        -0.0681
     11 O1          0.6932   -0.4774    1.1597 O.3       1 <0>        -0.2582
     12 C9          2.0126   -0.7635    1.0154 C.2       1 <0>         0.1995
     13 C10         2.6661   -0.4997   -0.1631 C.2       1 <0>        -0.2278
     14 C11         3.9967   -0.8024   -0.2702 C.2       1 <0>         0.1071
     15 S1          4.3650   -1.4858    1.3370 S.3       1 <0>         0.1467
     16 C12         2.7410   -1.3275    2.0614 C.2       1 <0>        -0.2715
     17 C13         2.3062   -1.6838    3.3579 C.2       1 <0>         0.6105
     18 O2          1.1458   -1.5034    3.6822 O.2       1 <0>        -0.5132
     19 N1          3.1752   -2.2231    4.2356 N.am      1 <0>        -0.8530
     20 N2          4.8472   -0.6227   -1.3571 N.pl3     1 <0>        -0.4128
     21 C14         4.6083   -1.0071   -2.6434 C.2       1 <0>         0.2872
     22 N3          5.6148   -0.6826   -3.4008 N.2       1 <0>        -0.4720
     23 C15         6.5701   -0.0677   -2.6554 C.ar      1 <0>         0.0638
     24 C16         6.0906   -0.0151   -1.3350 C.ar      1 <0>         0.0456
     25 C17         6.8582    0.5698   -0.3373 C.ar      1 <0>        -0.0952
     26 C18         8.0910    1.1027   -0.6406 C.ar      1 <0>        -0.0923
     27 C19         8.5760    1.0585   -1.9504 C.ar      1 <0>        -0.0116
     28 C20         7.8222    0.4706   -2.9557 C.ar      1 <0>        -0.0527
     29 C21         9.9072    1.6365   -2.2660 C.2       1 <0>        -0.1689
     30 C22        10.5203    1.6704   -3.5334 C.2       1 <0>         0.0873
     31 N4         11.6811    2.2574   -3.4074 N.2       1 <0>        -0.2945
     32 N5         11.8535    2.6186   -2.0657 N.pl3     1 <0>        -0.3893
     33 C23        10.7555    2.2363   -1.3821 C.2       1 <0>         0.0709
     34 C24        13.0219    3.2999   -1.5028 C.3       1 <0>         0.1209
     35 C25        14.2861    2.5066   -1.8395 C.3       1 <0>        -0.0235
     36 N6         15.4578    3.1897   -1.2751 N.4       1 <0>        -0.3827
     37 C26        15.6302    4.4918   -1.9338 C.3       1 <0>        -0.0512
     38 C27        16.8514    5.2016   -1.3439 C.3       1 <0>         0.0370
     39 O3         18.0048    4.3721   -1.5097 O.3       1 <0>        -0.3551
     40 C28        17.8757    3.0823   -0.9050 C.3       1 <0>         0.0365
     41 C29        16.6564    2.3685   -1.4941 C.3       1 <0>        -0.0423
     42 H2          1.2492    1.7356   -0.2170 H         1 <0>         0.0666
     43 H3         -0.3404    1.8661   -1.0071 H         1 <0>         0.0815
     44 H4         -0.2131    1.9971    0.7635 H         1 <0>         0.0768
     45 H5         -1.4244   -0.3696    2.2674 H         1 <0>         0.1451
     46 H6         -3.8222   -0.8861    2.4783 H         1 <0>         0.1341
     47 H7         -5.2121   -1.1299    0.4605 H         1 <0>         0.1361
     48 H8         -4.2046   -0.8571   -1.7692 H         1 <0>         0.1380
     49 H9          2.1369   -0.0592   -0.9952 H         1 <0>         0.1605
     50 H10         4.0991   -2.3667    3.9773 H         1 <0>         0.3965
     51 H11         2.8768   -2.4677    5.1255 H         1 <0>         0.4111
     52 H12         3.7142   -1.5084   -2.9835 H         1 <0>         0.2239
     53 H13         6.4884    0.6072    0.6768 H         1 <0>         0.1296
     54 H14         8.6859    1.5576    0.1376 H         1 <0>         0.1319
     55 H15         8.1980    0.4389   -3.9678 H         1 <0>         0.1370
     56 H16        10.1040    1.2787   -4.4497 H         1 <0>         0.1957
     57 H17        10.5807    2.3773   -0.3257 H         1 <0>         0.1837
     58 H18        13.0978    4.3013   -1.9266 H         1 <0>         0.1050
     59 H19        12.9148    3.3707   -0.4204 H         1 <0>         0.1168
     60 H20        14.2103    1.5052   -1.4157 H         1 <0>         0.1395
     61 H21        14.3932    2.4358   -2.9219 H         1 <0>         0.1462
     62 H22        15.7784    4.3414   -3.0032 H         1 <0>         0.1435
     63 H23        14.7416    5.1018   -1.7718 H         1 <0>         0.1427
     64 H24        17.0068    6.1486   -1.8607 H         1 <0>         0.1437
     65 H25        16.6866    5.3880   -0.2827 H         1 <0>         0.0825
     66 H26        18.7724    2.4955   -1.1042 H         1 <0>         0.1440
     67 H27        17.7460    3.1962    0.1712 H         1 <0>         0.0825
     68 H28        16.5295    1.4024   -1.0057 H         1 <0>         0.1443
     69 H29        16.8042    2.2190   -2.5637 H         1 <0>         0.1415
     70 H30        15.3216    3.3288   -0.2850 H         1 <0>         0.4233
@<TRIPOS>BOND
     1    1    2 1
     2    1   42 1
     3    1   43 1
     4    1   44 1
     5    2    3 1
     6    2    4 1
     7    2   11 1
     8    4    9 ar
     9    4    5 ar
    10    5    6 ar
    11    5   45 1
    12    6    7 ar
    13    6   46 1
    14    7    8 ar
    15    7   47 1
    16    8    9 ar
    17    8   48 1
    18    9   10 1
    19   11   12 1
    20   12   16 2
    21   12   13 1
    22   13   14 2
    23   13   49 1
    24   14   15 1
    25   14   20 1
    26   15   16 1
    27   16   17 1
    28   17   18 2
    29   17   19 am
    30   19   50 1
    31   19   51 1
    32   20   24 1
    33   20   21 1
    34   21   22 2
    35   21   52 1
    36   22   23 1
    37   23   28 ar
    38   23   24 ar
    39   24   25 ar
    40   25   26 ar
    41   25   53 1
    42   26   27 ar
    43   26   54 1
    44   27   28 ar
    45   27   29 1
    46   28   55 1
    47   29   33 2
    48   29   30 1
    49   30   31 2
    50   30   56 1
    51   31   32 1
    52   32   33 1
    53   32   34 1
    54   33   57 1
    55   34   35 1
    56   34   58 1
    57   34   59 1
    58   35   36 1
    59   35   60 1
    60   35   61 1
    61   36   41 1
    62   36   37 1
    63   36   70 1
    64   37   38 1
    65   37   62 1
    66   37   63 1
    67   38   39 1
    68   38   64 1
    69   38   65 1
    70   39   40 1
    71   40   41 1
    72   40   66 1
    73   40   67 1
    74   41   68 1
    75   41   69 1
@<TRIPOS>MOLECULE
CHEMBL522618
   44    48     0     0     0
SMALL
USER_CHARGES

@<TRIPOS>ATOM
      1 C1         -0.0187    1.5258    0.0104 C.3       1 <0>        -0.1676
      2 C2          0.0021   -0.0041    0.0020 C.3       1 <0>         0.1942
      3 H1          0.5123   -0.3556   -0.8948 H         1 <0>         0.0898
      4 C3         -1.4117   -0.5257    0.0127 C.ar      1 <0>        -0.0949
      5 C4         -2.1228   -0.5709    1.1973 C.ar      1 <0>        -0.1111
      6 C5         -3.4197   -1.0494    1.2071 C.ar      1 <0>        -0.1148
      7 C6         -4.0056   -1.4822    0.0323 C.ar      1 <0>        -0.1161
      8 C7         -3.2949   -1.4361   -1.1525 C.ar      1 <0>        -0.1154
      9 C8         -1.9995   -0.9536   -1.1630 C.ar      1 <0>        -0.1075
     10 N1          0.7106   -0.4894    1.1889 N.pl3     1 <0>        -0.7163
     11 C9          2.0992   -0.6035    1.1732 C.ar      1 <0>         0.3832
     12 C10         2.8016   -0.2497    0.0308 C.ar      1 <0>        -0.1729
     13 C11         4.1899   -0.3712    0.0368 C.ar      1 <0>        -0.0955
     14 C12         4.8224   -0.8471    1.1994 C.ar      1 <0>        -0.0284
     15 C13         4.0415   -1.1783    2.2970 C.ar      1 <0>         0.1770
     16 N2          2.7313   -1.0438    2.2524 N.ar      1 <0>        -0.4876
     17 O1          6.1472   -0.8710    0.9497 O.3       1 <0>        -0.0727
     18 N3          6.3894   -0.4149   -0.3664 N.2       1 <0>        -0.2592
     19 C14         5.2562   -0.1089   -0.9409 C.2       1 <0>         0.1679
     20 C15         5.0791    0.4055   -2.3193 C.ar      1 <0>        -0.0317
     21 C16         3.9586    0.0377   -3.0636 C.ar      1 <0>        -0.0724
     22 C17         3.7947    0.5171   -4.3464 C.ar      1 <0>        -0.0992
     23 C18         4.7422    1.3655   -4.9006 C.ar      1 <0>         0.0569
     24 C19         5.8645    1.7364   -4.1610 C.ar      1 <0>         0.0345
     25 C20         6.0297    1.2627   -2.8725 C.ar      1 <0>        -0.0625
     26 O2          6.6341    2.5670   -4.9238 O.3       1 <0>        -0.3034
     27 C21         6.1821    2.3743   -6.2772 C.3       1 <0>         0.2120
     28 O3          4.8103    1.9645   -6.1250 O.3       1 <0>        -0.3034
     29 H2          1.0039    1.9031    0.0027 H         1 <0>         0.0644
     30 H3         -0.5459    1.8868   -0.8726 H         1 <0>         0.0717
     31 H4         -0.5289    1.8773    0.9072 H         1 <0>         0.0646
     32 H5         -1.6650   -0.2328    2.1152 H         1 <0>         0.1214
     33 H6         -3.9750   -1.0854    2.1327 H         1 <0>         0.1248
     34 H7         -5.0186   -1.8567    0.0401 H         1 <0>         0.1240
     35 H8         -3.7525   -1.7745   -2.0703 H         1 <0>         0.1254
     36 H9         -1.4455   -0.9141   -2.0892 H         1 <0>         0.1248
     37 H10         0.2131   -0.7312    1.9857 H         1 <0>         0.4082
     38 H11         2.2836    0.1120   -0.8451 H         1 <0>         0.1451
     39 H12         4.5116   -1.5455    3.1973 H         1 <0>         0.1783
     40 H13         3.2191   -0.6228   -2.6355 H         1 <0>         0.1452
     41 H14         2.9264    0.2308   -4.9213 H         1 <0>         0.1474
     42 H15         6.8960    1.5531   -2.2967 H         1 <0>         0.1448
     43 H16         6.2431    3.3071   -6.8378 H         1 <0>         0.1373
     44 H17         6.7630    1.5931   -6.7673 H         1 <0>         0.0901
@<TRIPOS>BOND
     1    1    2 1
     2    1   29 1
     3    1   30 1
     4    1   31 1
     5    2    3 1
     6    2    4 1
     7    2   10 1
     8    4    9 ar
     9    4    5 ar
    10    5    6 ar
    11    5   32 1
    12    6    7 ar
    13    6   33 1
    14    7    8 ar
    15    7   34 1
    16    8    9 ar
    17    8   35 1
    18    9   36 1
    19   10   11 1
    20   10   37 1
    21   11   16 ar
    22   11   12 ar
    23   12   13 ar
    24   12   38 1
    25   13   19 1
    26   13   14 ar
    27   14   15 ar
    28   14   17 1
    29   15   16 ar
    30   15   39 1
    31   17   18 1
    32   18   19 2
    33   19   20 1
    34   20   25 ar
    35   20   21 ar
    36   21   22 ar
    37   21   40 1
    38   22   23 ar
    39   22   41 1
    40   23   28 1
    41   23   24 ar
    42   24   25 ar
    43   24   26 1
    44   25   42 1
    45   26   27 1
    46   27   28 1
    47   27   43 1
    48   27   44 1
@<TRIPOS>MOLECULE
CHEMBL491021
   51    54     0     0     0
SMALL
USER_CHARGES

@<TRIPOS>ATOM
      1 C1         -0.0187    1.5258    0.0104 C.3       1 <0>        -0.1671
      2 C2          0.0021   -0.0041    0.0020 C.3       1 <0>         0.1939
      3 H1          0.5123   -0.3556   -0.8948 H         1 <0>         0.0893
      4 C3         -1.4117   -0.5257    0.0127 C.ar      1 <0>        -0.0946
      5 C4         -2.1228   -0.5709    1.1973 C.ar      1 <0>        -0.1111
      6 C5         -3.4197   -1.0494    1.2071 C.ar      1 <0>        -0.1149
      7 C6         -4.0056   -1.4822    0.0323 C.ar      1 <0>        -0.1160
      8 C7         -3.2949   -1.4361   -1.1525 C.ar      1 <0>        -0.1152
      9 C8         -1.9995   -0.9536   -1.1630 C.ar      1 <0>        -0.1071
     10 N1          0.7106   -0.4894    1.1889 N.pl3     1 <0>        -0.7156
     11 C9          2.0992   -0.6035    1.1732 C.ar      1 <0>         0.3842
     12 C10         2.8016   -0.2497    0.0308 C.ar      1 <0>        -0.1729
     13 C11         4.1899   -0.3712    0.0368 C.ar      1 <0>        -0.0970
     14 C12         4.8224   -0.8472    1.1995 C.ar      1 <0>        -0.0289
     15 C13         4.0415   -1.1781    2.2972 C.ar      1 <0>         0.1773
     16 N2          2.7313   -1.0438    2.2525 N.ar      1 <0>        -0.4871
     17 O1          6.1471   -0.8709    0.9497 O.3       1 <0>        -0.0723
     18 N3          6.3890   -0.4148   -0.3665 N.2       1 <0>        -0.2580
     19 C14         5.2561   -0.1089   -0.9407 C.2       1 <0>         0.1633
     20 C15         5.0789    0.4052   -2.3200 C.ar      1 <0>        -0.0222
     21 C16         6.0313    1.2579   -2.8766 C.ar      1 <0>        -0.0721
     22 C17         5.8620    1.7333   -4.1609 C.ar      1 <0>        -0.0673
     23 C18         4.7495    1.3661   -4.8965 C.ar      1 <0>        -0.0851
     24 C19         3.8000    0.5202   -4.3495 C.ar      1 <0>        -0.0311
     25 C20         3.9626    0.0334   -3.0669 C.ar      1 <0>        -0.0818
     26 Cl1         2.4063    0.0653   -5.2791 Cl        1 <0>        -0.0550
     27 C21         6.8910    2.6549   -4.7632 C.3       1 <0>        -0.0671
     28 C22         7.9574    1.8274   -5.4835 C.3       1 <0>        -0.1399
     29 C23         8.9864    2.7491   -6.0859 C.2       1 <0>         0.5163
     30 O2          8.8776    3.9496   -5.9522 O.2       1 <0>        -0.5419
     31 N4         10.0277    2.2393   -6.7731 N.am      1 <0>        -0.8570
     32 H2          1.0039    1.9031    0.0027 H         1 <0>         0.0639
     33 H3         -0.5459    1.8868   -0.8726 H         1 <0>         0.0720
     34 H4         -0.5289    1.8773    0.9072 H         1 <0>         0.0648
     35 H5         -1.6650   -0.2328    2.1152 H         1 <0>         0.1213
     36 H6         -3.9750   -1.0854    2.1327 H         1 <0>         0.1249
     37 H7         -5.0186   -1.8567    0.0401 H         1 <0>         0.1240
     38 H8         -3.7525   -1.7745   -2.0703 H         1 <0>         0.1254
     39 H9         -1.4455   -0.9141   -2.0892 H         1 <0>         0.1246
     40 H10         0.2131   -0.7312    1.9857 H         1 <0>         0.4084
     41 H11         2.2835    0.1120   -0.8451 H         1 <0>         0.1440
     42 H12         4.5116   -1.5453    3.1975 H         1 <0>         0.1786
     43 H13         6.9001    1.5461   -2.3034 H         1 <0>         0.1390
     44 H14         4.6211    1.7410   -5.9012 H         1 <0>         0.1423
     45 H15         3.2240   -0.6303   -2.6424 H         1 <0>         0.1395
     46 H16         6.4074    3.3235   -5.4755 H         1 <0>         0.0890
     47 H17         7.3591    3.2425   -3.9735 H         1 <0>         0.0886
     48 H18         8.4410    1.1589   -4.7713 H         1 <0>         0.0991
     49 H19         7.4893    1.2398   -6.2733 H         1 <0>         0.0989
     50 H20        10.1148    1.2791   -6.8801 H         1 <0>         0.4027
     51 H21        10.6900    2.8325   -7.1608 H         1 <0>         0.4030
@<TRIPOS>BOND
     1    1    2 1
     2    1   32 1
     3    1   33 1
     4    1   34 1
     5    2    3 1
     6    2    4 1
     7    2   10 1
     8    4    9 ar
     9    4    5 ar
    10    5    6 ar
    11    5   35 1
    12    6    7 ar
    13    6   36 1
    14    7    8 ar
    15    7   37 1
    16    8    9 ar
    17    8   38 1
    18    9   39 1
    19   10   11 1
    20   10   40 1
    21   11   16 ar
    22   11   12 ar
    23   12   13 ar
    24   12   41 1
    25   13   19 1
    26   13   14 ar
    27   14   15 ar
    28   14   17 1
    29   15   16 ar
    30   15   42 1
    31   17   18 1
    32   18   19 2
    33   19   20 1
    34   20   25 ar
    35   20   21 ar
    36   21   22 ar
    37   21   43 1
    38   22   23 ar
    39   22   27 1
    40   23   24 ar
    41   23   44 1
    42   24   25 ar
    43   24   26 1
    44   25   45 1
    45   27   28 1
    46   27   46 1
    47   27   47 1
    48   28   29 1
    49   28   48 1
    50   28   49 1
    51   29   30 2
    52   29   31 am
    53   31   50 1
    54   31   51 1
@<TRIPOS>MOLECULE
CHEMBL490814
   51    54     0     0     0
SMALL
USER_CHARGES

@<TRIPOS>ATOM
      1 C1         -0.0187    1.5258    0.0104 C.3       1 <0>        -0.1669
      2 C2          0.0021   -0.0041    0.0020 C.3       1 <0>         0.1938
      3 H1         -1.0205   -0.3814    0.0098 H         1 <0>         0.0893
      4 C3          0.7309   -0.5033    1.2229 C.ar      1 <0>        -0.0947
      5 C4          2.1131   -0.5138    1.2466 C.ar      1 <0>        -0.1111
      6 C5          2.7816   -0.9717    2.3665 C.ar      1 <0>        -0.1149
      7 C6          2.0681   -1.4187    3.4629 C.ar      1 <0>        -0.1160
      8 C7          0.6860   -1.4074    3.4395 C.ar      1 <0>        -0.1152
      9 C8          0.0174   -0.9454    2.3212 C.ar      1 <0>        -0.1070
     10 N1          0.6878   -0.4765   -1.2033 N.pl3     1 <0>        -0.7157
     11 C9         -0.0169   -0.6126   -2.3976 C.ar      1 <0>         0.3841
     12 C10        -1.3658   -0.2927   -2.4360 C.ar      1 <0>        -0.1730
     13 C11        -2.0513   -0.4357   -3.6409 C.ar      1 <0>        -0.0968
     14 C12        -1.3488   -0.8981   -4.7684 C.ar      1 <0>        -0.0289
     15 C13         0.0002   -1.1947   -4.6397 C.ar      1 <0>         0.1773
     16 N2          0.6128   -1.0410   -3.4831 N.ar      1 <0>        -0.4871
     17 O1         -2.2265   -0.9474   -5.7906 O.3       1 <0>        -0.0721
     18 N3         -3.4984   -0.5215   -5.3437 N.2       1 <0>        -0.2572
     19 C14        -3.4371   -0.2096   -4.0765 C.2       1 <0>         0.1629
     20 C15        -4.5557    0.2796   -3.2353 C.ar      1 <0>        -0.0223
     21 C16        -5.5350    1.1060   -3.7848 C.ar      1 <0>        -0.0723
     22 C17        -6.5742    1.5582   -2.9978 C.ar      1 <0>        -0.0652
     23 C18        -6.6460    1.1938   -1.6652 C.ar      1 <0>        -0.0854
     24 C19        -5.6766    0.3739   -1.1135 C.ar      1 <0>        -0.0309
     25 C20        -4.6352   -0.0897   -1.8938 C.ar      1 <0>        -0.0824
     26 Cl1        -5.7736   -0.0778    0.5599 Cl        1 <0>        -0.0552
     27 C21        -7.6331    2.4515   -3.5910 C.3       1 <0>        -0.0790
     28 C22        -8.7689    1.5933   -4.1516 C.3       1 <0>        -0.1182
     29 C23        -9.8439    2.5002   -4.7538 C.3       1 <0>         0.0748
     30 O2        -10.9048    1.6986   -5.2774 O.3       1 <0>        -0.5752
     31 H2          1.0039    1.9031    0.0027 H         1 <0>         0.0648
     32 H3         -0.5459    1.8868   -0.8726 H         1 <0>         0.0637
     33 H4         -0.5289    1.8773    0.9072 H         1 <0>         0.0718
     34 H5          2.6705   -0.1645    0.3901 H         1 <0>         0.1213
     35 H6          3.8614   -0.9806    2.3848 H         1 <0>         0.1249
     36 H7          2.5905   -1.7771    4.3376 H         1 <0>         0.1241
     37 H8          0.1286   -1.7569    4.2959 H         1 <0>         0.1254
     38 H9         -1.0624   -0.9331    2.3044 H         1 <0>         0.1246
     39 H10         1.6324   -0.6946   -1.1699 H         1 <0>         0.4083
     40 H11        -1.8744    0.0595   -1.5507 H         1 <0>         0.1439
     41 H12         0.5540   -1.5512   -5.4956 H         1 <0>         0.1787
     42 H13        -5.4800    1.3920   -4.8248 H         1 <0>         0.1385
     43 H14        -7.4611    1.5505   -1.0530 H         1 <0>         0.1417
     44 H15        -3.8818   -0.7332   -1.4640 H         1 <0>         0.1395
     45 H16        -8.0249    3.1131   -2.8184 H         1 <0>         0.0826
     46 H17        -7.1980    3.0474   -4.3933 H         1 <0>         0.0822
     47 H18        -8.3771    0.9316   -4.9241 H         1 <0>         0.0741
     48 H19        -9.2040    0.9974   -3.3493 H         1 <0>         0.0738
     49 H20       -10.2357    3.1618   -3.9813 H         1 <0>         0.0471
     50 H21        -9.4088    3.0961   -5.5561 H         1 <0>         0.0471
     51 H22       -11.6232    2.2086   -5.6759 H         1 <0>         0.3823
@<TRIPOS>BOND
     1    1    2 1
     2    1   31 1
     3    1   32 1
     4    1   33 1
     5    2    3 1
     6    2    4 1
     7    2   10 1
     8    4    9 ar
     9    4    5 ar
    10    5    6 ar
    11    5   34 1
    12    6    7 ar
    13    6   35 1
    14    7    8 ar
    15    7   36 1
    16    8    9 ar
    17    8   37 1
    18    9   38 1
    19   10   11 1
    20   10   39 1
    21   11   16 ar
    22   11   12 ar
    23   12   13 ar
    24   12   40 1
    25   13   19 1
    26   13   14 ar
    27   14   15 ar
    28   14   17 1
    29   15   16 ar
    30   15   41 1
    31   17   18 1
    32   18   19 2
    33   19   20 1
    34   20   25 ar
    35   20   21 ar
    36   21   22 ar
    37   21   42 1
    38   22   23 ar
    39   22   27 1
    40   23   24 ar
    41   23   43 1
    42   24   25 ar
    43   24   26 1
    44   25   44 1
    45   27   28 1
    46   27   45 1
    47   27   46 1
    48   28   29 1
    49   28   47 1
    50   28   48 1
    51   29   30 1
    52   29   49 1
    53   29   50 1
    54   30   51 1
@<TRIPOS>MOLECULE
CHEMBL564529
   62    66     0     0     0
SMALL
USER_CHARGES

@<TRIPOS>ATOM
      1 C1         -0.0480    1.2718    0.3454 C.3       1 <0>        -0.1785
      2 C2         -0.0149   -0.2306    0.0579 C.3       1 <0>         0.1072
      3 H1          0.5050   -0.7440    0.8667 H         1 <0>         0.0969
      4 C3         -1.4246   -0.7535   -0.0449 C.ar      1 <0>        -0.0414
      5 C4         -2.0301   -0.8704   -1.2820 C.ar      1 <0>        -0.0713
      6 C5         -3.3230   -1.3500   -1.3764 C.ar      1 <0>        -0.0863
      7 C6         -4.0114   -1.7131   -0.2336 C.ar      1 <0>        -0.1528
      8 C7         -3.4071   -1.5967    1.0037 C.ar      1 <0>        -0.0854
      9 C8         -2.1108   -1.1220    1.0983 C.ar      1 <0>        -0.0296
     10 Cl1        -1.3486   -0.9817    2.6518 Cl        1 <0>        -0.0382
     11 C9         -5.4212   -2.2354   -0.3373 C.3       1 <0>         0.0463
     12 N1         -5.3922   -3.6964   -0.4880 N.4       1 <0>        -0.5065
     13 C10        -6.7665   -4.2056   -0.5891 C.3       1 <0>         0.0193
     14 C11        -7.5000   -4.0174    0.7549 C.3       1 <0>        -0.1437
     15 C12        -8.3823   -5.2835    0.8867 C.3       1 <0>        -0.1251
     16 C13        -7.4721   -6.3960    0.3097 C.3       1 <0>        -0.1311
     17 C14        -6.7487   -5.7179   -0.8722 C.3       1 <0>        -0.1449
     18 O1          0.6709   -0.4649   -1.1737 O.3       1 <0>        -0.2665
     19 C15         2.0249   -0.5529   -1.1182 C.2       1 <0>         0.2039
     20 C16         2.6953   -0.3095    0.0505 C.2       1 <0>        -0.2557
     21 C17         4.0807   -0.4118    0.0583 C.2       1 <0>         0.0177
     22 S1          4.4387   -0.8636   -1.6310 S.3       1 <0>         0.1148
     23 C18         2.7646   -0.8992   -2.2494 C.2       1 <0>        -0.2975
     24 C19         2.3063   -1.1988   -3.5511 C.2       1 <0>         0.6162
     25 O2          1.1133   -1.1722   -3.7982 O.2       1 <0>        -0.5326
     26 N2          3.1883   -1.5141   -4.5201 N.am      1 <0>        -0.8535
     27 C20         5.0129   -0.2011    1.1722 C.2       1 <0>        -0.0400
     28 C21         4.6825    0.0500    2.4894 C.2       1 <0>         0.1110
     29 N3          5.8074    0.1804    3.1829 N.2       1 <0>        -0.4840
     30 C22         6.8517    0.0254    2.3756 C.2       1 <0>         0.2505
     31 N4          6.3904   -0.2210    1.1096 N.pl3     1 <0>        -0.3475
     32 C23         7.2618   -0.4247    0.0817 C.2       1 <0>         0.0486
     33 C24         8.5956   -0.3906    0.2936 C.2       1 <0>        -0.1215
     34 C25         9.1001   -0.1446    1.5800 C.2       1 <0>        -0.0862
     35 C26         8.2387    0.0687    2.6129 C.2       1 <0>        -0.0781
     36 H2          0.9716    1.6500    0.4197 H         1 <0>         0.0785
     37 H3         -0.5679    1.7852   -0.4634 H         1 <0>         0.0763
     38 H4         -0.5711    1.4505    1.2848 H         1 <0>         0.0807
     39 H5         -1.4930   -0.5866   -2.1750 H         1 <0>         0.1590
     40 H6         -3.7958   -1.4408   -2.3431 H         1 <0>         0.1418
     41 H7         -3.9450   -1.8801    1.8963 H         1 <0>         0.1450
     42 H8         -5.9728   -1.9741    0.5657 H         1 <0>         0.1401
     43 H9         -5.9107   -1.7905   -1.2037 H         1 <0>         0.1424
     44 H10        -4.8816   -3.9383   -1.3239 H         1 <0>         0.4283
     45 H11        -7.3004   -3.6833   -1.3830 H         1 <0>         0.1443
     46 H12        -6.7847   -3.9638    1.5757 H         1 <0>         0.0873
     47 H13        -8.1200   -3.1213    0.7289 H         1 <0>         0.0987
     48 H14        -8.6196   -5.4819    1.9319 H         1 <0>         0.0884
     49 H15        -9.2923   -5.1834    0.2951 H         1 <0>         0.0838
     50 H16        -6.7523   -6.7266    1.0585 H         1 <0>         0.0777
     51 H17        -8.0718   -7.2358   -0.0412 H         1 <0>         0.0875
     52 H18        -7.2748   -5.9297   -1.8030 H         1 <0>         0.1039
     53 H19        -5.7204   -6.0741   -0.9345 H         1 <0>         0.0854
     54 H20         2.1578   -0.0428    0.9484 H         1 <0>         0.1552
     55 H21         4.1379   -1.5353   -4.3234 H         1 <0>         0.3980
     56 H22         2.8735   -1.7199   -5.4142 H         1 <0>         0.4093
     57 H23         3.6814    0.1273    2.8870 H         1 <0>         0.1908
     58 H24         6.8825   -0.6154   -0.9113 H         1 <0>         0.1601
     59 H25         9.2757   -0.5536   -0.5293 H         1 <0>         0.1615
     60 H26        10.1666   -0.1183    1.7486 H         1 <0>         0.1540
     61 H27         8.6160    0.2574    3.6071 H         1 <0>         0.1620
     62 H28        -4.9391   -4.1083    0.3140 H         1 <0>         0.4257
@<TRIPOS>BOND
     1    1    2 1
     2    1   36 1
     3    1   37 1
     4    1   38 1
     5    2    3 1
     6    2    4 1
     7    2   18 1
     8    4    9 ar
     9    4    5 ar
    10    5    6 ar
    11    5   39 1
    12    6    7 ar
    13    6   40 1
    14    7    8 ar
    15    7   11 1
    16    8    9 ar
    17    8   41 1
    18    9   10 1
    19   11   12 1
    20   11   42 1
    21   11   43 1
    22   12   13 1
    23   12   44 1
    24   12   62 1
    25   13   17 1
    26   13   14 1
    27   13   45 1
    28   14   15 1
    29   14   46 1
    30   14   47 1
    31   15   16 1
    32   15   48 1
    33   15   49 1
    34   16   17 1
    35   16   50 1
    36   16   51 1
    37   17   52 1
    38   17   53 1
    39   18   19 1
    40   19   23 2
    41   19   20 1
    42   20   21 2
    43   20   54 1
    44   21   22 1
    45   21   27 1
    46   22   23 1
    47   23   24 1
    48   24   25 2
    49   24   26 am
    50   26   55 1
    51   26   56 1
    52   27   31 1
    53   27   28 2
    54   28   29 1
    55   28   57 1
    56   29   30 2
    57   30   35 1
    58   30   31 1
    59   31   32 1
    60   32   33 2
    61   32   58 1
    62   33   34 1
    63   33   59 1
    64   34   35 2
    65   34   60 1
    66   35   61 1
@<TRIPOS>MOLECULE
CHEMBL564529__1
   63    67     0     0     0
SMALL
USER_CHARGES

@<TRIPOS>ATOM
      1 C1          0.2924    1.2790   -0.1308 C.3       1 <0>        -0.1808
      2 C2          0.0646   -0.2292   -0.0104 C.3       1 <0>         0.1102
      3 H1          0.5180   -0.7343   -0.8632 H         1 <0>         0.0939
      4 C3          0.6932   -0.7320    1.2636 C.ar      1 <0>        -0.0503
      5 C4         -0.0724   -0.8641    2.4070 C.ar      1 <0>        -0.0709
      6 C5          0.5040   -1.3253    3.5755 C.ar      1 <0>        -0.0838
      7 C6          1.8466   -1.6547    3.6017 C.ar      1 <0>        -0.1454
      8 C7          2.6130   -1.5230    2.4593 C.ar      1 <0>        -0.0839
      9 C8          2.0352   -1.0668    1.2876 C.ar      1 <0>        -0.0278
     10 Cl1         2.9958   -0.9074   -0.1496 Cl        1 <0>        -0.0438
     11 C9          2.4744   -2.1570    4.8763 C.3       1 <0>         0.0434
     12 N1          2.3662   -3.6210    4.9316 N.4       1 <0>        -0.5060
     13 C10         2.9782   -4.1106    6.1741 C.3       1 <0>         0.0189
     14 C11         4.5037   -3.8842    6.1367 C.3       1 <0>        -0.1435
     15 C12         5.0904   -5.1335    6.8394 C.3       1 <0>        -0.1256
     16 C13         4.1639   -6.2714    6.3435 C.3       1 <0>        -0.1313
     17 C14         2.7622   -5.6284    6.3055 C.3       1 <0>        -0.1446
     18 O1         -1.3386   -0.4987    0.0122 O.3       1 <0>        -0.2605
     19 C15        -1.9649   -0.6067   -1.1879 C.2       1 <0>         0.1809
     20 C16        -1.2942   -0.3504   -2.3536 C.2       1 <0>        -0.1910
     21 C17        -1.9771   -0.4741   -3.5570 C.2       1 <0>        -0.0806
     22 S1         -3.6073   -0.9651   -3.0209 S.3       1 <0>         0.1683
     23 C18        -3.3053   -0.9869   -1.2617 C.2       1 <0>        -0.2462
     24 C19        -4.1957   -1.3053   -0.2129 C.2       1 <0>         0.6065
     25 O2         -3.8142   -1.2651    0.9436 O.2       1 <0>        -0.5121
     26 N2         -5.4676   -1.6537   -0.4912 N.am      1 <0>        -0.8473
     27 C20        -1.4839   -0.2557   -4.9220 C.2       1 <0>         0.0705
     28 C21        -0.1846    0.0268   -5.2952 C.2       1 <0>         0.1137
     29 N3         -0.1495    0.1535   -6.6166 N.pl3     1 <0>        -0.4959
     30 C22        -1.3665   -0.0338   -7.1169 C.cat     1 <0>         0.3085
     31 N4         -2.2259   -0.2983   -6.0835 N.pl3     1 <0>        -0.3218
     32 C23        -3.5462   -0.5360   -6.3236 C.2       1 <0>         0.0775
     33 C24        -4.0301   -0.5185   -7.5848 C.2       1 <0>        -0.0946
     34 C25        -3.1747   -0.2547   -8.6657 C.2       1 <0>        -0.0121
     35 C26        -1.8553   -0.0074   -8.4368 C.2       1 <0>        -0.1147
     36 H2          1.3627    1.4846   -0.1480 H         1 <0>         0.0844
     37 H3         -0.1623    1.6427   -1.0523 H         1 <0>         0.0741
     38 H4         -0.1610    1.7842    0.7221 H         1 <0>         0.0815
     39 H5         -1.1210   -0.6066    2.3873 H         1 <0>         0.1588
     40 H6         -0.0944   -1.4280    4.4687 H         1 <0>         0.1447
     41 H7          3.6618   -1.7801    2.4799 H         1 <0>         0.1472
     42 H8          3.5254   -1.8691    4.9016 H         1 <0>         0.1419
     43 H9          1.9578   -1.7219    5.7318 H         1 <0>         0.1445
     44 H10         1.3933   -3.8874    4.9081 H         1 <0>         0.4281
     45 H11         2.5445   -3.5961    7.0316 H         1 <0>         0.1455
     46 H12         4.8555   -3.8253    5.1067 H         1 <0>         0.0864
     47 H13         4.7685   -2.9792    6.6836 H         1 <0>         0.0993
     48 H14         6.1190   -5.3073    6.5231 H         1 <0>         0.0892
     49 H15         5.0305   -5.0312    7.9230 H         1 <0>         0.0851
     50 H16         4.4609   -6.5981    5.3469 H         1 <0>         0.0773
     51 H17         4.1809   -7.1086    7.0412 H         1 <0>         0.0888
     52 H18         2.2244   -5.8506    7.2273 H         1 <0>         0.1050
     53 H19         2.2033   -6.0017    5.4474 H         1 <0>         0.0847
     54 H20        -0.2548   -0.0574   -2.3379 H         1 <0>         0.1615
     55 H21        -5.7713   -1.6857   -1.4119 H         1 <0>         0.3981
     56 H22        -6.0793   -1.8724    0.2291 H         1 <0>         0.4166
     57 H23         0.6580    0.1276   -4.6272 H         1 <0>         0.2350
     58 H24        -4.2117   -0.7407   -5.4980 H         1 <0>         0.1892
     59 H25        -5.0784   -0.7085   -7.7618 H         1 <0>         0.1905
     60 H26        -3.5623   -0.2416   -9.6737 H         1 <0>         0.1828
     61 H27        -1.1877    0.1952   -9.2613 H         1 <0>         0.1871
     62 H28         2.8444   -4.0237    4.1397 H         1 <0>         0.4251
     63 H29         0.6439    0.3532   -7.1377 H         1 <0>         0.4696
@<TRIPOS>BOND
     1    1    2 1
     2    1   36 1
     3    1   37 1
     4    1   38 1
     5    2    3 1
     6    2    4 1
     7    2   18 1
     8    4    9 ar
     9    4    5 ar
    10    5    6 ar
    11    5   39 1
    12    6    7 ar
    13    6   40 1
    14    7    8 ar
    15    7   11 1
    16    8    9 ar
    17    8   41 1
    18    9   10 1
    19   11   12 1
    20   11   42 1
    21   11   43 1
    22   12   13 1
    23   12   44 1
    24   12   62 1
    25   13   17 1
    26   13   14 1
    27   13   45 1
    28   14   15 1
    29   14   46 1
    30   14   47 1
    31   15   16 1
    32   15   48 1
    33   15   49 1
    34   16   17 1
    35   16   50 1
    36   16   51 1
    37   17   52 1
    38   17   53 1
    39   18   19 1
    40   19   23 2
    41   19   20 1
    42   20   21 2
    43   20   54 1
    44   21   22 1
    45   21   27 1
    46   22   23 1
    47   23   24 1
    48   24   25 2
    49   24   26 am
    50   26   55 1
    51   26   56 1
    52   27   31 1
    53   27   28 2
    54   28   29 1
    55   28   57 1
    56   29   30 2
    57   29   63 1
    58   30   35 1
    59   30   31 1
    60   31   32 1
    61   32   33 2
    62   32   58 1
    63   33   34 1
    64   33   59 1
    65   34   35 2
    66   34   60 1
    67   35   61 1
@<TRIPOS>MOLECULE
CHEMBL1209758
   54    58     0     0     0
SMALL
USER_CHARGES

@<TRIPOS>ATOM
      1 C1         -0.2378    1.5009   -0.1012 C.3       1 <0>        -0.1930
      2 C2          0.0024   -0.0065    0.0031 C.3       1 <0>         0.1024
      3 H1         -0.9537   -0.5208    0.1015 H         1 <0>         0.0912
      4 C3          0.8555   -0.2969    1.2109 C.ar      1 <0>        -0.0416
      5 C4          2.2264   -0.4161    1.0764 C.ar      1 <0>        -0.0898
      6 C5          3.0089   -0.6825    2.1842 C.ar      1 <0>        -0.0839
      7 C6          2.4208   -0.8292    3.4268 C.ar      1 <0>        -0.1145
      8 C7          1.0505   -0.7091    3.5614 C.ar      1 <0>        -0.0720
      9 C8          0.2682   -0.4384    2.4541 C.ar      1 <0>        -0.1767
     10 C9         -1.2253   -0.3022    2.6017 C.3       1 <0>         0.5054
     11 F1         -1.5800   -0.4848    3.9426 F         1 <0>        -0.1710
     12 F2         -1.6208    0.9731    2.1842 F         1 <0>        -0.1711
     13 F3         -1.8617   -1.2685    1.8153 F         1 <0>        -0.1758
     14 O1          0.6709   -0.4649   -1.1737 O.3       1 <0>        -0.2566
     15 C10        -0.1062   -0.7743   -2.2432 C.2       1 <0>         0.1999
     16 C11        -1.4598   -0.5443   -2.2209 C.2       1 <0>        -0.2337
     17 C12        -2.2098   -0.8698   -3.3187 C.2       1 <0>         0.1168
     18 S1         -0.9851   -1.5266   -4.4387 S.3       1 <0>         0.1499
     19 C13         0.4497   -1.3286   -3.3950 C.2       1 <0>        -0.2756
     20 C14         1.7984   -1.6520   -3.6654 C.2       1 <0>         0.6126
     21 O2          2.6546   -1.4471   -2.8232 O.2       1 <0>        -0.5175
     22 N1          2.1376   -2.1871   -4.8549 N.am      1 <0>        -0.8528
     23 N2         -3.5803   -0.7251   -3.5125 N.pl3     1 <0>        -0.4144
     24 C15        -4.5650   -1.1315   -2.6609 C.2       1 <0>         0.2816
     25 N3         -5.7320   -0.8384   -3.1549 N.2       1 <0>        -0.4678
     26 C16        -5.5795   -0.2238   -4.3571 C.ar      1 <0>         0.0647
     27 C17        -4.1976   -0.1368   -4.6023 C.ar      1 <0>         0.0415
     28 C18        -3.7316    0.4563   -5.7681 C.ar      1 <0>        -0.0946
     29 C19        -4.6137    0.9609   -6.6812 C.ar      1 <0>        -0.0957
     30 C20        -5.9924    0.8861   -6.4519 C.ar      1 <0>        -0.0099
     31 C21        -6.4775    0.2883   -5.2940 C.ar      1 <0>        -0.0454
     32 C22        -6.9365    1.4367   -7.4483 C.2       1 <0>         0.0457
     33 C23        -8.2952    1.4368   -7.3510 C.2       1 <0>        -0.1679
     34 C24        -8.7978    2.0543   -8.5083 C.2       1 <0>        -0.2001
     35 C25        -7.7440    2.4111   -9.2736 C.2       1 <0>         0.0018
     36 N4         -6.5989    2.0429   -8.6310 N.pl3     1 <0>        -0.5548
     37 H2         -5.6964    2.1838   -8.9574 H         1 <0>         0.4138
     38 H3          0.7183    2.0152   -0.1995 H         1 <0>         0.0772
     39 H4         -0.8549    1.7110   -0.9748 H         1 <0>         0.0694
     40 H5         -0.7477    1.8506    0.7965 H         1 <0>         0.0973
     41 H6          2.6857   -0.3015    0.1057 H         1 <0>         0.1485
     42 H7          4.0796   -0.7763    2.0790 H         1 <0>         0.1374
     43 H8          3.0322   -1.0380    4.2923 H         1 <0>         0.1385
     44 H9          0.5911   -0.8240    4.5321 H         1 <0>         0.1426
     45 H10        -1.9267   -0.1124   -1.3481 H         1 <0>         0.1592
     46 H11         1.4559   -2.3503   -5.5254 H         1 <0>         0.3976
     47 H12         3.0634   -2.4091   -5.0405 H         1 <0>         0.4103
     48 H13        -4.3998   -1.6251   -1.7146 H         1 <0>         0.2231
     49 H14        -2.6694    0.5192   -5.9533 H         1 <0>         0.1283
     50 H15        -4.2446    1.4210   -7.5859 H         1 <0>         0.1287
     51 H16        -7.5411    0.2311   -5.1159 H         1 <0>         0.1429
     52 H17        -8.8782    1.0358   -6.5352 H         1 <0>         0.1400
     53 H18        -9.8396    2.2145   -8.7438 H         1 <0>         0.1397
     54 H19        -7.7987    2.9081  -10.2309 H         1 <0>         0.1680
@<TRIPOS>BOND
     1    1    2 1
     2    1   38 1
     3    1   39 1
     4    1   40 1
     5    2    3 1
     6    2    4 1
     7    2   14 1
     8    4    9 ar
     9    4    5 ar
    10    5    6 ar
    11    5   41 1
    12    6    7 ar
    13    6   42 1
    14    7    8 ar
    15    7   43 1
    16    8    9 ar
    17    8   44 1
    18    9   10 1
    19   10   11 1
    20   10   12 1
    21   10   13 1
    22   14   15 1
    23   15   19 2
    24   15   16 1
    25   16   17 2
    26   16   45 1
    27   17   18 1
    28   17   23 1
    29   18   19 1
    30   19   20 1
    31   20   21 2
    32   20   22 am
    33   22   46 1
    34   22   47 1
    35   23   27 1
    36   23   24 1
    37   24   25 2
    38   24   48 1
    39   25   26 1
    40   26   31 ar
    41   26   27 ar
    42   27   28 ar
    43   28   29 ar
    44   28   49 1
    45   29   30 ar
    46   29   50 1
    47   30   31 ar
    48   30   32 1
    49   31   51 1
    50   32   36 1
    51   32   33 2
    52   33   34 1
    53   33   52 1
    54   34   35 2
    55   34   53 1
    56   35   36 1
    57   35   54 1
    58   36   37 1
@<TRIPOS>MOLECULE
CHEMBL1209759
   53    57     0     0     0
SMALL
USER_CHARGES

@<TRIPOS>ATOM
      1 C1         -0.2378    1.5009   -0.1012 C.3       1 <0>        -0.1929
      2 C2          0.0024   -0.0065    0.0031 C.3       1 <0>         0.1024
      3 H1         -0.9537   -0.5208    0.1015 H         1 <0>         0.0912
      4 C3          0.8555   -0.2969    1.2109 C.ar      1 <0>        -0.0414
      5 C4          2.2264   -0.4161    1.0764 C.ar      1 <0>        -0.0898
      6 C5          3.0089   -0.6824    2.1842 C.ar      1 <0>        -0.0840
      7 C6          2.4208   -0.8291    3.4268 C.ar      1 <0>        -0.1147
      8 C7          1.0505   -0.7090    3.5614 C.ar      1 <0>        -0.0721
      9 C8          0.2682   -0.4384    2.4541 C.ar      1 <0>        -0.1767
     10 C9         -1.2253   -0.3022    2.6017 C.3       1 <0>         0.5054
     11 F1         -1.5800   -0.4848    3.9426 F         1 <0>        -0.1711
     12 F2         -1.6208    0.9731    2.1842 F         1 <0>        -0.1710
     13 F3         -1.8617   -1.2685    1.8153 F         1 <0>        -0.1757
     14 O1          0.6709   -0.4649   -1.1737 O.3       1 <0>        -0.2569
     15 C10        -0.1062   -0.7743   -2.2432 C.2       1 <0>         0.2003
     16 C11        -1.4598   -0.5443   -2.2209 C.2       1 <0>        -0.2358
     17 C12        -2.2098   -0.8698   -3.3187 C.2       1 <0>         0.1201
     18 S1         -0.9851   -1.5266   -4.4387 S.3       1 <0>         0.1493
     19 C13         0.4497   -1.3286   -3.3950 C.2       1 <0>        -0.2771
     20 C14         1.7984   -1.6519   -3.6654 C.2       1 <0>         0.6128
     21 O2          2.6546   -1.4469   -2.8233 O.2       1 <0>        -0.5182
     22 N1          2.1376   -2.1871   -4.8549 N.am      1 <0>        -0.8530
     23 N2         -3.5804   -0.7255   -3.5123 N.pl3     1 <0>        -0.4159
     24 C15        -4.5649   -1.1322   -2.6609 C.2       1 <0>         0.2798
     25 N3         -5.7320   -0.8389   -3.1549 N.2       1 <0>        -0.4702
     26 C16        -5.5797   -0.2238   -4.3569 C.ar      1 <0>         0.0640
     27 C17        -4.1982   -0.1370   -4.6022 C.ar      1 <0>         0.0383
     28 C18        -3.7329    0.4562   -5.7677 C.ar      1 <0>        -0.0982
     29 C19        -4.6252    0.9636   -6.6853 C.ar      1 <0>        -0.0920
     30 C20        -6.0004    0.8856   -6.4501 C.ar      1 <0>         0.0082
     31 C21        -6.4791    0.2887   -5.2929 C.ar      1 <0>        -0.0608
     32 C22        -6.9536    1.4368   -7.4467 C.2       1 <0>        -0.2010
     33 C23        -6.6277    2.0364   -8.6278 C.2       1 <0>         0.0786
     34 N4         -7.7779    2.3929   -9.2354 N.pl3     1 <0>        -0.4713
     35 H2         -7.8533    2.8397  -10.0930 H         1 <0>         0.4435
     36 N5         -8.8442    2.0066   -8.4143 N.2       1 <0>        -0.2896
     37 C24        -8.3583    1.4299   -7.3469 C.2       1 <0>         0.0691
     38 H3          0.7183    2.0152   -0.1995 H         1 <0>         0.0770
     39 H4         -0.8549    1.7109   -0.9748 H         1 <0>         0.0697
     40 H5         -0.7477    1.8506    0.7965 H         1 <0>         0.0970
     41 H6          2.6857   -0.3015    0.1057 H         1 <0>         0.1485
     42 H7          4.0796   -0.7763    2.0790 H         1 <0>         0.1373
     43 H8          3.0322   -1.0380    4.2923 H         1 <0>         0.1384
     44 H9          0.5911   -0.8240    4.5321 H         1 <0>         0.1424
     45 H10        -1.9267   -0.1124   -1.3481 H         1 <0>         0.1587
     46 H11         1.4559   -2.3503   -5.5254 H         1 <0>         0.3976
     47 H12         3.0634   -2.4090   -5.0406 H         1 <0>         0.4100
     48 H13        -4.3998   -1.6263   -1.7149 H         1 <0>         0.2214
     49 H14        -2.6711    0.5199   -5.9545 H         1 <0>         0.1271
     50 H15        -4.2603    1.4246   -7.5913 H         1 <0>         0.1345
     51 H16        -7.5423    0.2302   -5.1123 H         1 <0>         0.1370
     52 H17        -5.6295    2.1967   -9.0076 H         1 <0>         0.1817
     53 H18        -8.9339    1.0215   -6.5294 H         1 <0>         0.1882
@<TRIPOS>BOND
     1    1    2 1
     2    1   38 1
     3    1   39 1
     4    1   40 1
     5    2    3 1
     6    2    4 1
     7    2   14 1
     8    4    9 ar
     9    4    5 ar
    10    5    6 ar
    11    5   41 1
    12    6    7 ar
    13    6   42 1
    14    7    8 ar
    15    7   43 1
    16    8    9 ar
    17    8   44 1
    18    9   10 1
    19   10   11 1
    20   10   12 1
    21   10   13 1
    22   14   15 1
    23   15   19 2
    24   15   16 1
    25   16   17 2
    26   16   45 1
    27   17   18 1
    28   17   23 1
    29   18   19 1
    30   19   20 1
    31   20   21 2
    32   20   22 am
    33   22   46 1
    34   22   47 1
    35   23   27 1
    36   23   24 1
    37   24   25 2
    38   24   48 1
    39   25   26 1
    40   26   31 ar
    41   26   27 ar
    42   27   28 ar
    43   28   29 ar
    44   28   49 1
    45   29   30 ar
    46   29   50 1
    47   30   31 ar
    48   30   32 1
    49   31   51 1
    50   32   37 1
    51   32   33 2
    52   33   34 1
    53   33   52 1
    54   34   35 1
    55   34   36 1
    56   36   37 2
    57   37   53 1
@<TRIPOS>MOLECULE
CHEMBL1209756
   55    59     0     0     0
SMALL
USER_CHARGES

@<TRIPOS>ATOM
      1 C1         -0.0052    1.5021    0.2561 C.3       1 <0>        -0.1930
      2 C2          0.0030   -0.0065    0.0012 C.3       1 <0>         0.1024
      3 H1          0.5788   -0.5037    0.7818 H         1 <0>         0.0912
      4 C3          0.6296   -0.2859   -1.3405 C.ar      1 <0>        -0.0415
      5 C4         -0.1689   -0.4292   -2.4600 C.ar      1 <0>        -0.0898
      6 C5          0.4059   -0.6854   -3.6906 C.ar      1 <0>        -0.0839
      7 C6          1.7794   -0.7981   -3.8021 C.ar      1 <0>        -0.1145
      8 C7          2.5777   -0.6540   -2.6831 C.ar      1 <0>        -0.0720
      9 C8          2.0030   -0.3934   -1.4529 C.ar      1 <0>        -0.1766
     10 C9          2.8738   -0.2310   -0.2337 C.3       1 <0>         0.5054
     11 F1          4.2166   -0.3812   -0.5963 F         1 <0>        -0.1710
     12 F2          2.6780    1.0417    0.3131 F         1 <0>        -0.1710
     13 F3          2.5351   -1.2028    0.7140 F         1 <0>        -0.1758
     14 O1         -1.3386   -0.4987    0.0122 O.3       1 <0>        -0.2567
     15 C10        -1.8684   -0.8173    1.2210 C.2       1 <0>         0.1997
     16 C11        -1.1785   -0.5658    2.3813 C.2       1 <0>        -0.2333
     17 C12        -1.7460   -0.9014    3.5808 C.2       1 <0>         0.1162
     18 S1         -3.3113   -1.5995    3.0825 S.3       1 <0>         0.1516
     19 C13        -3.1295   -1.4030    1.3173 C.2       1 <0>        -0.2754
     20 C14        -4.0295   -1.7527    0.2856 C.2       1 <0>         0.6127
     21 O2         -3.7334   -1.5444   -0.8776 O.2       1 <0>        -0.5175
     22 N1         -5.2156   -2.3168    0.5884 N.am      1 <0>        -0.8528
     23 N2         -1.2323   -0.7397    4.8642 N.pl3     1 <0>        -0.4147
     24 C15         0.0074   -1.1142    5.2924 C.2       1 <0>         0.2783
     25 N3          0.1556   -0.8135    6.5491 N.2       1 <0>        -0.4642
     26 C16        -0.9769   -0.2255    7.0159 C.ar      1 <0>         0.0498
     27 C17        -1.8816   -0.1640    5.9409 C.ar      1 <0>         0.0559
     28 C18        -3.1384    0.3988    6.1186 C.ar      1 <0>        -0.1072
     29 C19        -3.4997    0.8984    7.3380 C.ar      1 <0>        -0.0731
     30 C20        -2.6111    0.8481    8.4163 C.ar      1 <0>        -0.0538
     31 C21        -1.3528    0.2816    8.2599 C.ar      1 <0>        -0.0130
     32 C22        -3.0166    1.3948    9.7340 C.ar      1 <0>         0.1712
     33 C23        -4.3188    1.8551    9.9201 C.ar      1 <0>        -0.1630
     34 C24        -4.6826    2.3620   11.1552 C.ar      1 <0>        -0.0707
     35 C25        -3.7312    2.3921   12.1655 C.ar      1 <0>        -0.1744
     36 C26        -2.4575    1.9188   11.9116 C.ar      1 <0>         0.1078
     37 N4         -2.1384    1.4365   10.7275 N.ar      1 <0>        -0.4786
     38 H2          1.0181    1.8775    0.2477 H         1 <0>         0.0971
     39 H3         -0.5810    1.9993   -0.5245 H         1 <0>         0.0772
     40 H4         -0.4585    1.7042    1.2265 H         1 <0>         0.0696
     41 H5         -1.2417   -0.3412   -2.3729 H         1 <0>         0.1485
     42 H6         -0.2179   -0.7980   -4.5650 H         1 <0>         0.1374
     43 H7          2.2284   -0.9990   -4.7635 H         1 <0>         0.1384
     44 H8          3.6505   -0.7423   -2.7701 H         1 <0>         0.1425
     45 H9         -0.2002   -0.1093    2.3478 H         1 <0>         0.1591
     46 H10        -5.4513   -2.4827    1.5146 H         1 <0>         0.3976
     47 H11        -5.8334   -2.5568   -0.1198 H         1 <0>         0.4102
     48 H12         0.7564   -1.5911    4.6777 H         1 <0>         0.2232
     49 H13        -3.8315    0.4420    5.2915 H         1 <0>         0.1306
     50 H14        -4.4784    1.3355    7.4697 H         1 <0>         0.1406
     51 H15        -0.6660    0.2443    9.0925 H         1 <0>         0.1497
     52 H16        -5.0338    1.8172    9.1116 H         1 <0>         0.1384
     53 H17        -5.6843    2.7263   11.3292 H         1 <0>         0.1379
     54 H18        -3.9836    2.7819   13.1405 H         1 <0>         0.1374
     55 H19        -1.7150    1.9408   12.6955 H         1 <0>         0.1599
@<TRIPOS>BOND
     1    1    2 1
     2    1   38 1
     3    1   39 1
     4    1   40 1
     5    2    3 1
     6    2    4 1
     7    2   14 1
     8    4    9 ar
     9    4    5 ar
    10    5    6 ar
    11    5   41 1
    12    6    7 ar
    13    6   42 1
    14    7    8 ar
    15    7   43 1
    16    8    9 ar
    17    8   44 1
    18    9   10 1
    19   10   11 1
    20   10   12 1
    21   10   13 1
    22   14   15 1
    23   15   19 2
    24   15   16 1
    25   16   17 2
    26   16   45 1
    27   17   18 1
    28   17   23 1
    29   18   19 1
    30   19   20 1
    31   20   21 2
    32   20   22 am
    33   22   46 1
    34   22   47 1
    35   23   27 1
    36   23   24 1
    37   24   25 2
    38   24   48 1
    39   25   26 1
    40   26   31 ar
    41   26   27 ar
    42   27   28 ar
    43   28   29 ar
    44   28   49 1
    45   29   30 ar
    46   29   50 1
    47   30   31 ar
    48   30   32 1
    49   31   51 1
    50   32   37 ar
    51   32   33 ar
    52   33   34 ar
    53   33   52 1
    54   34   35 ar
    55   34   53 1
    56   35   36 ar
    57   35   54 1
    58   36   37 ar
    59   36   55 1
@<TRIPOS>MOLECULE
CHEMBL1209757
   53    57     0     0     0
SMALL
USER_CHARGES

@<TRIPOS>ATOM
      1 C1         -0.2378    1.5009   -0.1012 C.3       1 <0>        -0.1930
      2 C2          0.0024   -0.0065    0.0031 C.3       1 <0>         0.1024
      3 H1         -0.9537   -0.5208    0.1015 H         1 <0>         0.0911
      4 C3          0.8555   -0.2969    1.2109 C.ar      1 <0>        -0.0416
      5 C4          2.2264   -0.4161    1.0764 C.ar      1 <0>        -0.0898
      6 C5          3.0089   -0.6825    2.1842 C.ar      1 <0>        -0.0839
      7 C6          2.4208   -0.8292    3.4268 C.ar      1 <0>        -0.1145
      8 C7          1.0505   -0.7091    3.5614 C.ar      1 <0>        -0.0720
      9 C8          0.2682   -0.4384    2.4541 C.ar      1 <0>        -0.1767
     10 C9         -1.2253   -0.3022    2.6017 C.3       1 <0>         0.5054
     11 F1         -1.5800   -0.4848    3.9426 F         1 <0>        -0.1710
     12 F2         -1.6208    0.9731    2.1842 F         1 <0>        -0.1710
     13 F3         -1.8617   -1.2685    1.8153 F         1 <0>        -0.1759
     14 O1          0.6709   -0.4649   -1.1737 O.3       1 <0>        -0.2566
     15 C10        -0.1062   -0.7743   -2.2432 C.2       1 <0>         0.1993
     16 C11        -1.4598   -0.5443   -2.2209 C.2       1 <0>        -0.2324
     17 C12        -2.2098   -0.8698   -3.3187 C.2       1 <0>         0.1146
     18 S1         -0.9851   -1.5266   -4.4387 S.3       1 <0>         0.1526
     19 C13         0.4497   -1.3286   -3.3950 C.2       1 <0>        -0.2747
     20 C14         1.7985   -1.6516   -3.6655 C.2       1 <0>         0.6126
     21 O2          2.6547   -1.4463   -2.8236 O.2       1 <0>        -0.5172
     22 N1          2.1377   -2.1868   -4.8551 N.am      1 <0>        -0.8527
     23 N2         -3.5803   -0.7251   -3.5125 N.pl3     1 <0>        -0.4141
     24 C15        -4.5649   -1.1315   -2.6609 C.2       1 <0>         0.2823
     25 N3         -5.7320   -0.8381   -3.1548 N.2       1 <0>        -0.4676
     26 C16        -5.5796   -0.2233   -4.3569 C.ar      1 <0>         0.0610
     27 C17        -4.1976   -0.1367   -4.6024 C.ar      1 <0>         0.0498
     28 C18        -3.7315    0.4562   -5.7682 C.ar      1 <0>        -0.0981
     29 C19        -4.6135    0.9610   -6.6812 C.ar      1 <0>        -0.0725
     30 C20        -5.9924    0.8861   -6.4520 C.ar      1 <0>        -0.0030
     31 C21        -6.4774    0.2891   -5.2937 C.ar      1 <0>        -0.0461
     32 C22        -6.9362    1.4364   -7.4484 C.2       1 <0>        -0.1102
     33 C23        -6.6693    2.0456   -8.6450 C.2       1 <0>        -0.1446
     34 C24        -7.7247    2.4832   -9.4155 C.2       1 <0>        -0.1564
     35 C25        -8.9924    2.2980   -8.9670 C.2       1 <0>        -0.1716
     36 S2         -8.7208    1.4724   -7.4077 S.3       1 <0>         0.0614
     37 H2          0.7183    2.0152   -0.1995 H         1 <0>         0.0773
     38 H3         -0.8549    1.7110   -0.9748 H         1 <0>         0.0695
     39 H4         -0.7477    1.8506    0.7965 H         1 <0>         0.0972
     40 H5          2.6857   -0.3015    0.1057 H         1 <0>         0.1486
     41 H6          4.0796   -0.7763    2.0790 H         1 <0>         0.1374
     42 H7          3.0322   -1.0380    4.2923 H         1 <0>         0.1385
     43 H8          0.5911   -0.8240    4.5321 H         1 <0>         0.1425
     44 H9         -1.9267   -0.1124   -1.3481 H         1 <0>         0.1592
     45 H10         1.4559   -2.3503   -5.5254 H         1 <0>         0.3977
     46 H11         3.0635   -2.4085   -5.0408 H         1 <0>         0.4103
     47 H12        -4.3998   -1.6250   -1.7146 H         1 <0>         0.2238
     48 H13        -2.6694    0.5188   -5.9534 H         1 <0>         0.1318
     49 H14        -4.2444    1.4213   -7.5858 H         1 <0>         0.1408
     50 H15        -7.5411    0.2324   -5.1153 H         1 <0>         0.1384
     51 H16        -5.6510    2.1810   -8.9785 H         1 <0>         0.1361
     52 H17        -7.5455    2.9676  -10.3640 H         1 <0>         0.1371
     53 H18        -9.9255    2.5746   -9.4353 H         1 <0>         0.1883
@<TRIPOS>BOND
     1    1    2 1
     2    1   37 1
     3    1   38 1
     4    1   39 1
     5    2    3 1
     6    2    4 1
     7    2   14 1
     8    4    9 ar
     9    4    5 ar
    10    5    6 ar
    11    5   40 1
    12    6    7 ar
    13    6   41 1
    14    7    8 ar
    15    7   42 1
    16    8    9 ar
    17    8   43 1
    18    9   10 1
    19   10   11 1
    20   10   12 1
    21   10   13 1
    22   14   15 1
    23   15   19 2
    24   15   16 1
    25   16   17 2
    26   16   44 1
    27   17   18 1
    28   17   23 1
    29   18   19 1
    30   19   20 1
    31   20   21 2
    32   20   22 am
    33   22   45 1
    34   22   46 1
    35   23   27 1
    36   23   24 1
    37   24   25 2
    38   24   47 1
    39   25   26 1
    40   26   31 ar
    41   26   27 ar
    42   27   28 ar
    43   28   29 ar
    44   28   48 1
    45   29   30 ar
    46   29   49 1
    47   30   31 ar
    48   30   32 1
    49   31   50 1
    50   32   36 1
    51   32   33 2
    52   33   34 1
    53   33   51 1
    54   34   35 2
    55   34   52 1
    56   35   36 1
    57   35   53 1
@<TRIPOS>MOLECULE
CHEMBL476138
   46    48     0     0     0
SMALL
USER_CHARGES

@<TRIPOS>ATOM
      1 C1          0.9745   -1.0888   -0.2580 C.3       1 <0>        -0.1662
      2 C2         -0.0169    0.0460    0.0069 C.3       1 <0>         0.0808
      3 N1         -1.3808   -0.4890    0.0146 N.am      1 <0>        -0.5449
      4 C3         -1.9560   -0.8164    1.1622 C.2       1 <0>         0.5605
      5 O1         -1.3879   -0.6886    2.2323 O.2       1 <0>        -0.5133
      6 C4         -3.2822   -1.3272    1.0634 C.2       1 <0>        -0.4388
      7 C5         -4.1196   -1.7421    2.0475 C.2       1 <0>         0.3189
      8 N2         -3.7148   -1.6989    3.3537 N.pl3     1 <0>        -0.6177
      9 C6         -4.5769   -2.1260    4.3666 C.ar      1 <0>         0.1422
     10 C7         -5.8435   -2.6004    4.0489 C.ar      1 <0>        -0.1634
     11 C8         -6.6929   -3.0222    5.0527 C.ar      1 <0>        -0.0813
     12 C9         -6.2840   -2.9729    6.3729 C.ar      1 <0>        -0.1384
     13 C10        -5.0241   -2.5009    6.6928 C.ar      1 <0>        -0.0823
     14 C11        -4.1674   -2.0828    5.6936 C.ar      1 <0>        -0.1490
     15 S1         -3.5480   -1.2744   -0.7002 S.3       1 <0>         0.2758
     16 C12        -2.0593   -0.6441   -1.1621 C.2       1 <0>         0.2032
     17 C13        -1.6150   -0.3482   -2.4565 C.2       1 <0>        -0.2079
     18 C14        -0.2588    0.0575   -2.6728 C.1       1 <0>         0.2752
     19 N3          0.8170    0.3794   -2.8443 N.1       1 <0>        -0.4314
     20 C15        -2.5080   -0.4503   -3.5534 C.2       1 <0>         0.6068
     21 O2         -3.6615   -0.7954   -3.3695 O.2       1 <0>        -0.5385
     22 N4         -2.0803   -0.1655   -4.7994 N.am      1 <0>        -0.6161
     23 C16        -0.7191    0.2545   -5.1629 C.3       1 <0>         0.0930
     24 C17        -0.7048    0.4919   -6.6878 C.3       1 <0>        -0.1319
     25 C18        -2.2011    0.7392   -7.0151 C.3       1 <0>        -0.1347
     26 C19        -2.8983   -0.2297   -6.0242 C.3       1 <0>         0.1090
     27 H1          1.9892   -0.6907   -0.2637 H         1 <0>         0.0808
     28 H2          0.8837   -1.8409    0.5256 H         1 <0>         0.0636
     29 H3          0.7570   -1.5430   -1.2246 H         1 <0>         0.0614
     30 H4          0.2006    0.5003    0.9736 H         1 <0>         0.1048
     31 H5          0.0739    0.7982   -0.7767 H         1 <0>         0.0950
     32 H6         -5.1056   -2.1064    1.7995 H         1 <0>         0.1807
     33 H7         -2.8292   -1.3716    3.5764 H         1 <0>         0.4301
     34 H8         -6.1636   -2.6388    3.0182 H         1 <0>         0.1307
     35 H9         -7.6778   -3.3907    4.8065 H         1 <0>         0.1330
     36 H10        -6.9503   -3.3034    7.1560 H         1 <0>         0.1290
     37 H11        -4.7081   -2.4634    7.7248 H         1 <0>         0.1321
     38 H12        -3.1820   -1.7185    5.9437 H         1 <0>         0.1302
     39 H13        -0.4642    1.1773   -4.6417 H         1 <0>         0.0696
     40 H14        -0.0075   -0.5291   -4.9030 H         1 <0>         0.0693
     41 H15        -0.1058    1.3680   -6.9361 H         1 <0>         0.0831
     42 H16        -0.3360   -0.3899   -7.2118 H         1 <0>         0.0784
     43 H17        -2.4789    1.7741   -6.8154 H         1 <0>         0.0774
     44 H18        -2.4254    0.4682   -8.0467 H         1 <0>         0.0867
     45 H19        -2.9049   -1.2440   -6.4232 H         1 <0>         0.0711
     46 H20        -3.9152    0.1049   -5.8192 H         1 <0>         0.0835
@<TRIPOS>BOND
     1    1    2 1
     2    1   27 1
     3    1   28 1
     4    1   29 1
     5    2    3 1
     6    2   30 1
     7    2   31 1
     8    3   16 1
     9    3    4 am
    10    4    5 2
    11    4    6 1
    12    6    7 2
    13    6   15 1
    14    7    8 1
    15    7   32 1
    16    8    9 1
    17    8   33 1
    18    9   14 ar
    19    9   10 ar
    20   10   11 ar
    21   10   34 1
    22   11   12 ar
    23   11   35 1
    24   12   13 ar
    25   12   36 1
    26   13   14 ar
    27   13   37 1
    28   14   38 1
    29   15   16 1
    30   16   17 2
    31   17   18 1
    32   17   20 1
    33   18   19 3
    34   20   21 2
    35   20   22 am
    36   22   26 1
    37   22   23 1
    38   23   24 1
    39   23   39 1
    40   23   40 1
    41   24   25 1
    42   24   41 1
    43   24   42 1
    44   25   26 1
    45   25   43 1
    46   25   44 1
    47   26   45 1
    48   26   46 1
@<TRIPOS>MOLECULE
CHEMBL476138__1
   46    48     0     0     0
SMALL
USER_CHARGES

@<TRIPOS>ATOM
      1 C1          0.9745   -1.0888   -0.2580 C.3       1 <0>        -0.1669
      2 C2         -0.0169    0.0460    0.0069 C.3       1 <0>         0.0813
      3 N1         -1.3808   -0.4890    0.0146 N.am      1 <0>        -0.5465
      4 C3         -1.9560   -0.8164    1.1622 C.2       1 <0>         0.5685
      5 O1         -1.3879   -0.6886    2.2323 O.2       1 <0>        -0.4954
      6 C4         -3.2822   -1.3272    1.0634 C.2       1 <0>        -0.4255
      7 C5         -4.1196   -1.7421    2.0475 C.2       1 <0>         0.3193
      8 N2         -5.3687   -2.2036    1.7333 N.pl3     1 <0>        -0.6282
      9 C6         -6.2308   -2.6308    2.7463 C.ar      1 <0>         0.1444
     10 C7         -5.8234   -2.5822    4.0737 C.ar      1 <0>        -0.1619
     11 C8         -6.6783   -3.0047    5.0725 C.ar      1 <0>        -0.0811
     12 C9         -7.9386   -3.4759    4.7527 C.ar      1 <0>        -0.1380
     13 C10        -8.3471   -3.5261    3.4325 C.ar      1 <0>        -0.0822
     14 C11        -7.4995   -3.0998    2.4290 C.ar      1 <0>        -0.1498
     15 S1         -3.5480   -1.2744   -0.7002 S.3       1 <0>         0.2325
     16 C12        -2.0593   -0.6441   -1.1621 C.2       1 <0>         0.2139
     17 C13        -1.6150   -0.3482   -2.4565 C.2       1 <0>        -0.2048
     18 C14        -0.2588    0.0575   -2.6728 C.1       1 <0>         0.2744
     19 N3          0.8170    0.3794   -2.8443 N.1       1 <0>        -0.4283
     20 C15        -2.5080   -0.4503   -3.5534 C.2       1 <0>         0.6066
     21 O2         -3.6615   -0.7954   -3.3695 O.2       1 <0>        -0.5390
     22 N4         -2.0803   -0.1655   -4.7994 N.am      1 <0>        -0.6156
     23 C16        -0.7191    0.2545   -5.1629 C.3       1 <0>         0.0926
     24 C17        -0.7048    0.4919   -6.6878 C.3       1 <0>        -0.1318
     25 C18        -2.2011    0.7392   -7.0151 C.3       1 <0>        -0.1347
     26 C19        -2.8983   -0.2297   -6.0242 C.3       1 <0>         0.1089
     27 H1          1.9892   -0.6907   -0.2637 H         1 <0>         0.0814
     28 H2          0.8837   -1.8409    0.5256 H         1 <0>         0.0649
     29 H3          0.7570   -1.5430   -1.2246 H         1 <0>         0.0605
     30 H4          0.2006    0.5003    0.9736 H         1 <0>         0.1066
     31 H5          0.0739    0.7982   -0.7767 H         1 <0>         0.0947
     32 H6         -3.8001   -1.7080    3.0785 H         1 <0>         0.1835
     33 H7         -5.6557   -2.2343    0.8072 H         1 <0>         0.4187
     34 H8         -4.8392   -2.2147    4.3241 H         1 <0>         0.1307
     35 H9         -6.3622   -2.9675    6.1045 H         1 <0>         0.1324
     36 H10        -8.6052   -3.8057    5.5358 H         1 <0>         0.1289
     37 H11        -9.3319   -3.8949    3.1862 H         1 <0>         0.1326
     38 H12        -7.8209   -3.1350    1.3986 H         1 <0>         0.1318
     39 H13        -0.4642    1.1773   -4.6417 H         1 <0>         0.0701
     40 H14        -0.0075   -0.5291   -4.9030 H         1 <0>         0.0696
     41 H15        -0.1058    1.3680   -6.9361 H         1 <0>         0.0835
     42 H16        -0.3360   -0.3899   -7.2118 H         1 <0>         0.0786
     43 H17        -2.4789    1.7741   -6.8154 H         1 <0>         0.0776
     44 H18        -2.4254    0.4682   -8.0467 H         1 <0>         0.0869
     45 H19        -2.9049   -1.2440   -6.4232 H         1 <0>         0.0711
     46 H20        -3.9152    0.1049   -5.8192 H         1 <0>         0.0832
@<TRIPOS>BOND
     1    1    2 1
     2    1   27 1
     3    1   28 1
     4    1   29 1
     5    2    3 1
     6    2   30 1
     7    2   31 1
     8    3   16 1
     9    3    4 am
    10    4    5 2
    11    4    6 1
    12    6    7 2
    13    6   15 1
    14    7    8 1
    15    7   32 1
    16    8    9 1
    17    8   33 1
    18    9   14 ar
    19    9   10 ar
    20   10   11 ar
    21   10   34 1
    22   11   12 ar
    23   11   35 1
    24   12   13 ar
    25   12   36 1
    26   13   14 ar
    27   13   37 1
    28   14   38 1
    29   15   16 1
    30   16   17 2
    31   17   18 1
    32   17   20 1
    33   18   19 3
    34   20   21 2
    35   20   22 am
    36   22   26 1
    37   22   23 1
    38   23   24 1
    39   23   39 1
    40   23   40 1
    41   24   25 1
    42   24   41 1
    43   24   42 1
    44   25   26 1
    45   25   43 1
    46   25   44 1
    47   26   45 1
    48   26   46 1
@<TRIPOS>MOLECULE
CHEMBL476136
   61    63     0     0     0
SMALL
USER_CHARGES

@<TRIPOS>ATOM
      1 C1         -0.6818   -1.1088   -0.7064 C.3       1 <0>        -0.1679
      2 C2          0.0146    0.0464    0.0159 C.3       1 <0>         0.0790
      3 N1          0.7162   -0.4670    1.1950 N.am      1 <0>        -0.5439
      4 C3          2.0055   -0.7624    1.1205 C.2       1 <0>         0.5607
      5 O1          2.6449   -0.6222    0.0931 O.2       1 <0>        -0.5081
      6 C4          2.5955   -1.2544    2.3203 C.2       1 <0>        -0.4200
      7 C5          3.8764   -1.6364    2.5550 C.2       1 <0>         0.3061
      8 N2          4.8039   -1.5734    1.5512 N.pl3     1 <0>        -0.6251
      9 C6          6.1225   -1.9667    1.7929 C.ar      1 <0>         0.1713
     10 C7          6.4923   -2.4276    3.0503 C.ar      1 <0>        -0.1641
     11 C8          7.7965   -2.8160    3.2856 C.ar      1 <0>        -0.0666
     12 C9          8.7340   -2.7467    2.2713 C.ar      1 <0>        -0.1340
     13 C10         8.3694   -2.2880    1.0186 C.ar      1 <0>        -0.0673
     14 C11         7.0657   -1.9034    0.7747 C.ar      1 <0>        -0.1493
     15 C12        10.1562   -3.1714    2.5318 C.3       1 <0>        -0.0958
     16 C13        10.3079   -4.6623    2.2232 C.3       1 <0>        -0.0031
     17 N3         11.6942   -5.0763    2.4772 N.4       1 <0>        -0.3954
     18 C14        11.9835   -5.0317    3.9334 C.3       1 <0>        -0.0079
     19 C15        13.1937   -5.9874    4.0839 C.3       1 <0>        -0.1461
     20 C16        12.8725   -7.1135    3.0745 C.3       1 <0>        -0.1458
     21 C17        11.8884   -6.4850    2.0705 C.3       1 <0>        -0.0085
     22 S1          1.2000   -1.2328    3.4320 S.3       1 <0>         0.2789
     23 C18         0.0403   -0.6350    2.3716 C.2       1 <0>         0.2042
     24 C19        -1.3099   -0.3720    2.6329 C.2       1 <0>        -0.1973
     25 C20        -2.1850    0.0081    1.5650 C.1       1 <0>         0.2559
     26 N4         -2.8792    0.3097    0.7179 N.1       1 <0>        -0.4075
     27 C21        -1.8107   -0.4821    3.9550 C.2       1 <0>         0.6019
     28 O2         -1.0664   -0.8054    4.8632 O.2       1 <0>        -0.5300
     29 N5         -3.1104   -0.2290    4.2065 N.am      1 <0>        -0.7277
     30 C22        -3.6278   -0.3427    5.5724 C.3       1 <0>         0.0818
     31 C23        -5.1200   -0.0048    5.5822 C.3       1 <0>         0.4461
     32 F1         -5.8052   -0.8949    4.7484 F         1 <0>        -0.1772
     33 F2         -5.6141   -0.1134    6.8866 F         1 <0>        -0.1699
     34 F3         -5.3050    1.3029    5.1208 F         1 <0>        -0.1772
     35 H1         -1.3986   -1.5788   -0.0331 H         1 <0>         0.0627
     36 H2         -1.2038   -0.7268   -1.5837 H         1 <0>         0.0836
     37 H3          0.0610   -1.8436   -1.0169 H         1 <0>         0.0637
     38 H4          0.7314    0.5164   -0.6574 H         1 <0>         0.1068
     39 H5         -0.7282    0.7812    0.3263 H         1 <0>         0.0974
     40 H6          4.1635   -1.9903    3.5342 H         1 <0>         0.1813
     41 H7          4.5460   -1.2556    0.6718 H         1 <0>         0.4325
     42 H8          5.7608   -2.4816    3.8430 H         1 <0>         0.1369
     43 H9          8.0847   -3.1740    4.2629 H         1 <0>         0.1331
     44 H10         9.1042   -2.2348    0.2288 H         1 <0>         0.1328
     45 H11         6.7807   -1.5495   -0.2050 H         1 <0>         0.1366
     46 H12        10.8292   -2.5981    1.8942 H         1 <0>         0.0947
     47 H13        10.4038   -2.9898    3.5777 H         1 <0>         0.0948
     48 H14         9.6349   -5.2356    2.8608 H         1 <0>         0.1304
     49 H15        10.0602   -4.8439    1.1774 H         1 <0>         0.1304
     50 H16        12.2509   -4.0210    4.2417 H         1 <0>         0.1355
     51 H17        11.1312   -5.3970    4.5063 H         1 <0>         0.1339
     52 H18        14.1208   -5.4812    3.8149 H         1 <0>         0.0981
     53 H19        13.2491   -6.3828    5.0981 H         1 <0>         0.1166
     54 H20        13.7805   -7.4343    2.5640 H         1 <0>         0.1050
     55 H21        12.4061   -7.9566    3.5841 H         1 <0>         0.1037
     56 H22        10.9366   -7.0152    2.1021 H         1 <0>         0.1303
     57 H23        12.3067   -6.5269    1.0648 H         1 <0>         0.1319
     58 H24        -3.7032    0.0285    3.4832 H         1 <0>         0.4080
     59 H25        -3.4836   -1.3616    5.9319 H         1 <0>         0.1211
     60 H26        -3.0939    0.3508    6.2221 H         1 <0>         0.1210
     61 H27        12.3338   -4.4782    1.9759 H         1 <0>         0.4268
@<TRIPOS>BOND
     1    1    2 1
     2    1   35 1
     3    1   36 1
     4    1   37 1
     5    2    3 1
     6    2   38 1
     7    2   39 1
     8    3   23 1
     9    3    4 am
    10    4    5 2
    11    4    6 1
    12    6    7 2
    13    6   22 1
    14    7    8 1
    15    7   40 1
    16    8    9 1
    17    8   41 1
    18    9   14 ar
    19    9   10 ar
    20   10   11 ar
    21   10   42 1
    22   11   12 ar
    23   11   43 1
    24   12   13 ar
    25   12   15 1
    26   13   14 ar
    27   13   44 1
    28   14   45 1
    29   15   16 1
    30   15   46 1
    31   15   47 1
    32   16   17 1
    33   16   48 1
    34   16   49 1
    35   17   21 1
    36   17   18 1
    37   17   61 1
    38   18   19 1
    39   18   50 1
    40   18   51 1
    41   19   20 1
    42   19   52 1
    43   19   53 1
    44   20   21 1
    45   20   54 1
    46   20   55 1
    47   21   56 1
    48   21   57 1
    49   22   23 1
    50   23   24 2
    51   24   25 1
    52   24   27 1
    53   25   26 3
    54   27   28 2
    55   27   29 am
    56   29   30 1
    57   29   58 1
    58   30   31 1
    59   30   59 1
    60   30   60 1
    61   31   32 1
    62   31   33 1
    63   31   34 1
@<TRIPOS>MOLECULE
CHEMBL476136__1
   60    62     0     0     0
SMALL
USER_CHARGES

@<TRIPOS>ATOM
      1 C1          0.9745   -1.0888   -0.2580 C.3       1 <0>        -0.1646
      2 C2         -0.0170    0.0460    0.0069 C.3       1 <0>         0.0854
      3 N1         -1.3808   -0.4890    0.0146 N.am      1 <0>        -0.5468
      4 C3         -1.9564   -0.8165    1.1620 C.2       1 <0>         0.5674
      5 O1         -1.3886   -0.6889    2.2322 O.2       1 <0>        -0.5208
      6 C4         -3.2827   -1.3273    1.0630 C.2       1 <0>        -0.3811
      7 C5         -4.1198   -1.7424    2.0468 C.2       1 <0>         0.2461
      8 N2         -5.3694   -2.2040    1.7327 N.pl3     1 <0>        -0.6404
      9 C6         -6.2312   -2.6314    2.7457 C.ar      1 <0>         0.1979
     10 C7         -5.8237   -2.5831    4.0730 C.ar      1 <0>        -0.1731
     11 C8         -6.6784   -3.0059    5.0719 C.ar      1 <0>        -0.0643
     12 C9         -7.9385   -3.4774    4.7522 C.ar      1 <0>        -0.1541
     13 C10        -8.3475   -3.5269    3.4320 C.ar      1 <0>        -0.0646
     14 C11        -7.5000   -3.1003    2.4286 C.ar      1 <0>        -0.1635
     15 C12        -8.8681   -3.9388    5.8449 C.3       1 <0>        -0.0898
     16 C13        -9.7120   -2.7580    6.3291 C.3       1 <0>        -0.0043
     17 N3        -10.6181   -3.2078    7.3942 N.4       1 <0>        -0.3949
     18 C14        -9.8435   -3.5538    8.6134 C.3       1 <0>        -0.0077
     19 C15       -10.8968   -3.4476    9.7447 C.3       1 <0>        -0.1459
     20 C16       -11.7513   -2.2353    9.3087 C.3       1 <0>        -0.1453
     21 C17       -11.5244   -2.1084    7.7909 C.3       1 <0>        -0.0088
     22 S1         -3.5490   -1.2748   -0.7005 S.3       1 <0>         0.2197
     23 C18        -2.0606   -0.6444   -1.1633 C.2       1 <0>         0.1170
     24 C19        -1.6179   -0.3495   -2.4548 C.2       1 <0>        -0.0354
     25 C20        -0.2618    0.0562   -2.6716 C.1       1 <0>         0.2911
     26 N4          0.8140    0.3780   -2.8437 N.1       1 <0>        -0.4409
     27 C21        -2.5421   -0.4553   -3.5889 C.2       1 <0>         0.4386
     28 O2         -3.8238   -0.8387   -3.3840 O.3       1 <0>        -0.7343
     29 N5         -2.1279   -0.1794   -4.7974 N.2       1 <0>        -0.6789
     30 C22        -3.0509   -0.2850   -5.9301 C.3       1 <0>         0.0463
     31 C23        -3.2745    1.1016   -6.5369 C.3       1 <0>         0.4448
     32 F1         -2.0523    1.6202   -6.9781 F         1 <0>        -0.1881
     33 F2         -4.1559    1.0006   -7.6186 F         1 <0>        -0.2042
     34 F3         -3.8197    1.9518   -5.5689 F         1 <0>        -0.1896
     35 H1          1.9892   -0.6907   -0.2637 H         1 <0>         0.0761
     36 H2          0.8837   -1.8409    0.5256 H         1 <0>         0.0591
     37 H3          0.7570   -1.5430   -1.2246 H         1 <0>         0.0628
     38 H4          0.2006    0.5003    0.9736 H         1 <0>         0.0978
     39 H5          0.0739    0.7982   -0.7767 H         1 <0>         0.0932
     40 H6         -3.8000   -1.7085    3.0778 H         1 <0>         0.1701
     41 H7         -5.6565   -2.2345    0.8066 H         1 <0>         0.4213
     42 H8         -4.8395   -2.2156    4.3233 H         1 <0>         0.1355
     43 H9         -6.3622   -2.9686    6.1039 H         1 <0>         0.1266
     44 H10        -9.3323   -3.8957    3.1859 H         1 <0>         0.1279
     45 H11        -7.8215   -3.1354    1.3981 H         1 <0>         0.1363
     46 H12        -9.5234   -4.7196    5.4588 H         1 <0>         0.0912
     47 H13        -8.2839   -4.3331    6.6765 H         1 <0>         0.0905
     48 H14        -9.0567   -1.9772    6.7151 H         1 <0>         0.1301
     49 H15       -10.2961   -2.3638    5.4975 H         1 <0>         0.1309
     50 H16        -9.4527   -4.5691    8.5457 H         1 <0>         0.1352
     51 H17        -9.0356   -2.8393    8.7716 H         1 <0>         0.1339
     52 H18       -11.5047   -4.3511    9.7918 H         1 <0>         0.0970
     53 H19       -10.4151   -3.2552   10.7034 H         1 <0>         0.1152
     54 H20       -12.8047   -2.4196    9.5196 H         1 <0>         0.1036
     55 H21       -11.4149   -1.3325    9.8184 H         1 <0>         0.1028
     56 H22       -11.0637   -1.1470    7.5634 H         1 <0>         0.1306
     57 H23       -12.4742   -2.2018    7.2643 H         1 <0>         0.1313
     58 H24        -2.6261   -0.9475   -6.6844 H         1 <0>         0.0802
     59 H25        -4.0031   -0.6891   -5.5864 H         1 <0>         0.0823
     60 H26       -11.1531   -4.0046    7.0830 H         1 <0>         0.4258
@<TRIPOS>BOND
     1    1    2 1
     2    1   35 1
     3    1   36 1
     4    1   37 1
     5    2    3 1
     6    2   38 1
     7    2   39 1
     8    3   23 1
     9    3    4 am
    10    4    5 2
    11    4    6 1
    12    6    7 2
    13    6   22 1
    14    7    8 1
    15    7   40 1
    16    8    9 1
    17    8   41 1
    18    9   14 ar
    19    9   10 ar
    20   10   11 ar
    21   10   42 1
    22   11   12 ar
    23   11   43 1
    24   12   13 ar
    25   12   15 1
    26   13   14 ar
    27   13   44 1
    28   14   45 1
    29   15   16 1
    30   15   46 1
    31   15   47 1
    32   16   17 1
    33   16   48 1
    34   16   49 1
    35   17   21 1
    36   17   18 1
    37   17   60 1
    38   18   19 1
    39   18   50 1
    40   18   51 1
    41   19   20 1
    42   19   52 1
    43   19   53 1
    44   20   21 1
    45   20   54 1
    46   20   55 1
    47   21   56 1
    48   21   57 1
    49   22   23 1
    50   23   24 2
    51   24   25 1
    52   24   27 1
    53   25   26 3
    54   27   28 1
    55   27   29 2
    56   29   30 1
    57   30   31 1
    58   30   58 1
    59   30   59 1
    60   31   32 1
    61   31   33 1
    62   31   34 1
@<TRIPOS>MOLECULE
CHEMBL476136__2
   60    62     0     0     0
SMALL
USER_CHARGES

@<TRIPOS>ATOM
      1 C1          0.9745   -1.0888   -0.2580 C.3       1 <0>        -0.1637
      2 C2         -0.0170    0.0460    0.0069 C.3       1 <0>         0.0842
      3 N1         -1.3808   -0.4890    0.0146 N.am      1 <0>        -0.5443
      4 C3         -1.9564   -0.8165    1.1620 C.2       1 <0>         0.5609
      5 O1         -1.3886   -0.6889    2.2322 O.2       1 <0>        -0.5367
      6 C4         -3.2827   -1.3273    1.0630 C.2       1 <0>        -0.3889
      7 C5         -4.1198   -1.7424    2.0468 C.2       1 <0>         0.2472
      8 N2         -3.7146   -1.6994    3.3534 N.pl3     1 <0>        -0.6371
      9 C6         -4.5765   -2.1268    4.3665 C.ar      1 <0>         0.1967
     10 C7         -5.8432   -2.6011    4.0489 C.ar      1 <0>        -0.1748
     11 C8         -6.6924   -3.0232    5.0527 C.ar      1 <0>        -0.0628
     12 C9         -6.2834   -2.9737    6.3729 C.ar      1 <0>        -0.1557
     13 C10        -5.0233   -2.5021    6.6926 C.ar      1 <0>        -0.0648
     14 C11        -4.1668   -2.0838    5.6933 C.ar      1 <0>        -0.1658
     15 C12        -7.2133   -3.4342    7.4657 C.3       1 <0>        -0.0895
     16 C13        -6.9993   -4.9274    7.7218 C.3       1 <0>        -0.0040
     17 N3         -7.9058   -5.3763    8.7871 N.4       1 <0>        -0.3951
     18 C14        -9.3122   -5.3436    8.3104 C.3       1 <0>        -0.0077
     19 C15       -10.0328   -6.3293    9.2641 C.3       1 <0>        -0.1459
     20 C16        -8.9811   -7.4439    9.4684 C.3       1 <0>        -0.1453
     21 C17        -7.6293   -6.7881    9.1307 C.3       1 <0>        -0.0087
     22 S1         -3.5490   -1.2748   -0.7005 S.3       1 <0>         0.2549
     23 C18        -2.0606   -0.6444   -1.1633 C.2       1 <0>         0.1081
     24 C19        -1.6179   -0.3495   -2.4548 C.2       1 <0>        -0.0361
     25 C20        -0.2618    0.0562   -2.6716 C.1       1 <0>         0.2917
     26 N4          0.8140    0.3780   -2.8437 N.1       1 <0>        -0.4431
     27 C21        -2.5421   -0.4553   -3.5889 C.2       1 <0>         0.4384
     28 O2         -3.8238   -0.8387   -3.3840 O.3       1 <0>        -0.7323
     29 N5         -2.1279   -0.1794   -4.7974 N.2       1 <0>        -0.6797
     30 C22        -3.0509   -0.2850   -5.9301 C.3       1 <0>         0.0463
     31 C23        -3.2745    1.1016   -6.5369 C.3       1 <0>         0.4447
     32 F1         -2.0523    1.6202   -6.9781 F         1 <0>        -0.1886
     33 F2         -4.1559    1.0006   -7.6186 F         1 <0>        -0.2041
     34 F3         -3.8197    1.9518   -5.5689 F         1 <0>        -0.1893
     35 H1          1.9892   -0.6907   -0.2637 H         1 <0>         0.0757
     36 H2          0.8837   -1.8409    0.5256 H         1 <0>         0.0576
     37 H3          0.7570   -1.5430   -1.2246 H         1 <0>         0.0637
     38 H4          0.2006    0.5003    0.9736 H         1 <0>         0.0964
     39 H5          0.0739    0.7982   -0.7767 H         1 <0>         0.0938
     40 H6         -5.1058   -2.1067    1.7989 H         1 <0>         0.1718
     41 H7         -2.8290   -1.3722    3.5761 H         1 <0>         0.4286
     42 H8         -6.1634   -2.6393    3.0182 H         1 <0>         0.1367
     43 H9         -7.6771   -3.3920    4.8065 H         1 <0>         0.1277
     44 H10        -4.7071   -2.4648    7.7246 H         1 <0>         0.1264
     45 H11        -3.1813   -1.7195    5.9434 H         1 <0>         0.1324
     46 H12        -7.0062   -2.8757    8.3784 H         1 <0>         0.0905
     47 H13        -8.2456   -3.2622    7.1608 H         1 <0>         0.0911
     48 H14        -7.2065   -5.4860    6.8091 H         1 <0>         0.1305
     49 H15        -5.9670   -5.0994    8.0267 H         1 <0>         0.1300
     50 H16        -9.7281   -4.3407    8.4077 H         1 <0>         0.1354
     51 H17        -9.3769   -5.6896    7.2788 H         1 <0>         0.1343
     52 H18       -10.2707   -5.8453   10.2113 H         1 <0>         0.0968
     53 H19       -10.9329   -6.7293    8.7972 H         1 <0>         0.1155
     54 H20        -8.9878   -7.7853   10.5035 H         1 <0>         0.1034
     55 H21        -9.1766   -8.2769    8.7931 H         1 <0>         0.1030
     56 H22        -7.1729   -7.2947    8.2803 H         1 <0>         0.1305
     57 H23        -6.9667   -6.8370    9.9948 H         1 <0>         0.1307
     58 H24        -2.6261   -0.9475   -6.6844 H         1 <0>         0.0799
     59 H25        -4.0031   -0.6891   -5.5864 H         1 <0>         0.0829
     60 H26        -7.8003   -4.7925    9.6032 H         1 <0>         0.4256
@<TRIPOS>BOND
     1    1    2 1
     2    1   35 1
     3    1   36 1
     4    1   37 1
     5    2    3 1
     6    2   38 1
     7    2   39 1
     8    3   23 1
     9    3    4 am
    10    4    5 2
    11    4    6 1
    12    6    7 2
    13    6   22 1
    14    7    8 1
    15    7   40 1
    16    8    9 1
    17    8   41 1
    18    9   14 ar
    19    9   10 ar
    20   10   11 ar
    21   10   42 1
    22   11   12 ar
    23   11   43 1
    24   12   13 ar
    25   12   15 1
    26   13   14 ar
    27   13   44 1
    28   14   45 1
    29   15   16 1
    30   15   46 1
    31   15   47 1
    32   16   17 1
    33   16   48 1
    34   16   49 1
    35   17   21 1
    36   17   18 1
    37   17   60 1
    38   18   19 1
    39   18   50 1
    40   18   51 1
    41   19   20 1
    42   19   52 1
    43   19   53 1
    44   20   21 1
    45   20   54 1
    46   20   55 1
    47   21   56 1
    48   21   57 1
    49   22   23 1
    50   23   24 2
    51   24   25 1
    52   24   27 1
    53   25   26 3
    54   27   28 1
    55   27   29 2
    56   29   30 1
    57   30   31 1
    58   30   58 1
    59   30   59 1
    60   31   32 1
    61   31   33 1
    62   31   34 1
@<TRIPOS>MOLECULE
CHEMBL476136__3
   61    63     0     0     0
SMALL
USER_CHARGES

@<TRIPOS>ATOM
      1 C1         -0.6818   -1.1088   -0.7064 C.3       1 <0>        -0.1689
      2 C2          0.0146    0.0464    0.0159 C.3       1 <0>         0.0797
      3 N1          0.7162   -0.4670    1.1950 N.am      1 <0>        -0.5454
      4 C3          2.0055   -0.7624    1.1205 C.2       1 <0>         0.5673
      5 O1          2.6449   -0.6222    0.0931 O.2       1 <0>        -0.4882
      6 C4          2.5955   -1.2544    2.3203 C.2       1 <0>        -0.4057
      7 C5          3.8764   -1.6364    2.5550 C.2       1 <0>         0.3048
      8 N2          4.2402   -2.0847    3.7955 N.pl3     1 <0>        -0.6343
      9 C6          5.5587   -2.4780    4.0371 C.ar      1 <0>         0.1731
     10 C7          6.5033   -2.4092    3.0205 C.ar      1 <0>        -0.1621
     11 C8          7.8059   -2.7983    3.2630 C.ar      1 <0>        -0.0666
     12 C9          8.1706   -3.2561    4.5160 C.ar      1 <0>        -0.1329
     13 C10         7.2329   -3.3263    5.5301 C.ar      1 <0>        -0.0674
     14 C11         5.9299   -2.9334    5.2961 C.ar      1 <0>        -0.1499
     15 C12         9.5931   -3.6799    4.7768 C.3       1 <0>        -0.0962
     16 C13        10.4032   -2.4759    5.2616 C.3       1 <0>        -0.0031
     17 N3         11.7898   -2.8890    5.5159 N.4       1 <0>        -0.3954
     18 C14        12.4677   -3.2221    4.2369 C.3       1 <0>        -0.0080
     19 C15        13.9706   -3.0757    4.5836 C.3       1 <0>        -0.1461
     20 C16        13.9884   -1.8591    5.5374 C.3       1 <0>        -0.1459
     21 C17        12.5574   -1.7672    6.0988 C.3       1 <0>        -0.0084
     22 S1          1.2000   -1.2328    3.4320 S.3       1 <0>         0.2339
     23 C18         0.0403   -0.6350    2.3716 C.2       1 <0>         0.2159
     24 C19        -1.3099   -0.3720    2.6329 C.2       1 <0>        -0.1951
     25 C20        -2.1850    0.0081    1.5650 C.1       1 <0>         0.2549
     26 N4         -2.8792    0.3097    0.7179 N.1       1 <0>        -0.4042
     27 C21        -1.8107   -0.4821    3.9550 C.2       1 <0>         0.6022
     28 O2         -1.0664   -0.8054    4.8632 O.2       1 <0>        -0.5312
     29 N5         -3.1104   -0.2290    4.2065 N.am      1 <0>        -0.7272
     30 C22        -3.6278   -0.3427    5.5724 C.3       1 <0>         0.0819
     31 C23        -5.1200   -0.0048    5.5822 C.3       1 <0>         0.4461
     32 F1         -5.8052   -0.8949    4.7484 F         1 <0>        -0.1768
     33 F2         -5.6141   -0.1134    6.8866 F         1 <0>        -0.1699
     34 F3         -5.3050    1.3029    5.1208 F         1 <0>        -0.1770
     35 H1         -1.3986   -1.5788   -0.0331 H         1 <0>         0.0618
     36 H2         -1.2038   -0.7268   -1.5837 H         1 <0>         0.0843
     37 H3          0.0610   -1.8436   -1.0169 H         1 <0>         0.0655
     38 H4          0.7314    0.5164   -0.6574 H         1 <0>         0.1086
     39 H5         -0.7282    0.7812    0.3263 H         1 <0>         0.0970
     40 H6          4.6086   -1.5867    1.7627 H         1 <0>         0.1838
     41 H7          3.5826   -2.1294    4.5071 H         1 <0>         0.4215
     42 H8          6.2190   -2.0521    2.0417 H         1 <0>         0.1370
     43 H9          8.5405   -2.7455    2.4732 H         1 <0>         0.1326
     44 H10         7.5211   -3.6846    6.5073 H         1 <0>         0.1335
     45 H11         5.1991   -2.9842    6.0898 H         1 <0>         0.1383
     46 H12         9.6063   -4.4579    5.5401 H         1 <0>         0.0951
     47 H13        10.0316   -4.0662    3.8567 H         1 <0>         0.0945
     48 H14        10.3900   -1.6979    4.4983 H         1 <0>         0.1302
     49 H15         9.9647   -2.0896    6.1817 H         1 <0>         0.1308
     50 H16        12.2402   -4.2447    3.9359 H         1 <0>         0.1355
     51 H17        12.1827   -2.5176    3.4556 H         1 <0>         0.1337
     52 H18        14.3384   -3.9681    5.0899 H         1 <0>         0.0982
     53 H19        14.5552   -2.8712    3.6867 H         1 <0>         0.1164
     54 H20        14.7020   -2.0220    6.3451 H         1 <0>         0.1051
     55 H21        14.2384   -0.9514    4.9881 H         1 <0>         0.1036
     56 H22        12.1055   -0.8183    5.8100 H         1 <0>         0.1303
     57 H23        12.5783   -1.8563    7.1849 H         1 <0>         0.1321
     58 H24        -3.7032    0.0285    3.4832 H         1 <0>         0.4085
     59 H25        -3.4836   -1.3616    5.9319 H         1 <0>         0.1209
     60 H26        -3.0939    0.3508    6.2221 H         1 <0>         0.1206
     61 H27        11.8082   -3.6834    6.1377 H         1 <0>         0.4267
@<TRIPOS>BOND
     1    1    2 1
     2    1   35 1
     3    1   36 1
     4    1   37 1
     5    2    3 1
     6    2   38 1
     7    2   39 1
     8    3   23 1
     9    3    4 am
    10    4    5 2
    11    4    6 1
    12    6    7 2
    13    6   22 1
    14    7    8 1
    15    7   40 1
    16    8    9 1
    17    8   41 1
    18    9   14 ar
    19    9   10 ar
    20   10   11 ar
    21   10   42 1
    22   11   12 ar
    23   11   43 1
    24   12   13 ar
    25   12   15 1
    26   13   14 ar
    27   13   44 1
    28   14   45 1
    29   15   16 1
    30   15   46 1
    31   15   47 1
    32   16   17 1
    33   16   48 1
    34   16   49 1
    35   17   21 1
    36   17   18 1
    37   17   61 1
    38   18   19 1
    39   18   50 1
    40   18   51 1
    41   19   20 1
    42   19   52 1
    43   19   53 1
    44   20   21 1
    45   20   54 1
    46   20   55 1
    47   21   56 1
    48   21   57 1
    49   22   23 1
    50   23   24 2
    51   24   25 1
    52   24   27 1
    53   25   26 3
    54   27   28 2
    55   27   29 am
    56   29   30 1
    57   29   58 1
    58   30   31 1
    59   30   59 1
    60   30   60 1
    61   31   32 1
    62   31   33 1
    63   31   34 1
@<TRIPOS>MOLECULE
CHEMBL1208894
   67    72     0     0     0
SMALL
USER_CHARGES

@<TRIPOS>ATOM
      1 C1         -0.2278    1.5061   -0.1024 C.3       1 <0>        -0.1752
      2 C2          0.0027   -0.0029    0.0018 C.3       1 <0>         0.1180
      3 H1         -0.9568   -0.5111    0.0979 H         1 <0>         0.0889
      4 C3          0.8513   -0.2991    1.2114 C.ar      1 <0>        -0.0876
      5 C4          2.2215   -0.4268    1.0801 C.ar      1 <0>        -0.0769
      6 C5          3.0001   -0.6984    2.1893 C.ar      1 <0>        -0.1125
      7 C6          2.4090   -0.8426    3.4309 C.ar      1 <0>        -0.0990
      8 C7          1.0394   -0.7151    3.5635 C.ar      1 <0>        -0.1096
      9 C8          0.2601   -0.4375    2.4543 C.ar      1 <0>        -0.0265
     10 Cl1        -1.4598   -0.2708    2.6211 Cl        1 <0>        -0.0680
     11 O1          0.6709   -0.4649   -1.1737 O.3       1 <0>        -0.2577
     12 C9         -0.1062   -0.7744   -2.2432 C.2       1 <0>         0.1987
     13 C10        -1.4598   -0.5443   -2.2209 C.2       1 <0>        -0.2249
     14 C11        -2.2098   -0.8698   -3.3187 C.2       1 <0>         0.1025
     15 S1         -0.9851   -1.5266   -4.4387 S.3       1 <0>         0.1489
     16 C12         0.4497   -1.3286   -3.3950 C.2       1 <0>        -0.2697
     17 C13         1.7985   -1.6515   -3.6656 C.2       1 <0>         0.6102
     18 O2          2.6548   -1.4461   -2.8237 O.2       1 <0>        -0.5122
     19 N1          2.1377   -2.1868   -4.8551 N.am      1 <0>        -0.8528
     20 N2         -3.5805   -0.7255   -3.5123 N.pl3     1 <0>        -0.4111
     21 C14        -4.5650   -1.1324   -2.6606 C.2       1 <0>         0.2881
     22 N3         -5.7321   -0.8400   -3.1546 N.2       1 <0>        -0.4676
     23 C15        -5.5796   -0.2254   -4.3567 C.ar      1 <0>         0.0563
     24 C16        -4.1975   -0.1374   -4.6013 C.ar      1 <0>         0.0583
     25 C17        -3.7322    0.4565   -5.7669 C.ar      1 <0>        -0.1003
     26 C18        -4.6156    0.9611   -6.6791 C.ar      1 <0>        -0.0780
     27 C19        -5.9926    0.8848   -6.4497 C.ar      1 <0>        -0.0693
     28 C20        -6.4770    0.2867   -5.2941 C.ar      1 <0>        -0.0291
     29 C21        -6.9399    1.4369   -7.4490 C.ar      1 <0>         0.0573
     30 C22        -8.3225    1.3768   -7.2377 C.ar      1 <0>        -0.2047
     31 C23        -9.1709    1.9008   -8.1884 C.ar      1 <0>         0.1572
     32 N4         -8.6983    2.4555   -9.2895 N.ar      1 <0>        -0.5379
     33 C24        -7.3984    2.5343   -9.5312 C.ar      1 <0>         0.3950
     34 C25        -6.4761    2.0346   -8.6206 C.ar      1 <0>        -0.2267
     35 N5         -6.9522    3.1284  -10.7064 N.pl3     1 <0>        -0.6298
     36 C26        -7.8785    3.8635  -11.5814 C.3       1 <0>         0.1049
     37 C27        -7.2688    5.2346  -11.8915 C.3       1 <0>        -0.0235
     38 N6         -5.9221    5.0557  -12.4485 N.4       1 <0>        -0.5045
     39 C28        -5.0410    4.4501  -11.4421 C.3       1 <0>        -0.0228
     40 C29        -5.5392    3.0449  -11.1069 C.3       1 <0>         0.0993
     41 H2          0.7316    2.0144   -0.1984 H         1 <0>         0.0769
     42 H3         -0.8416    1.7203   -0.9772 H         1 <0>         0.0660
     43 H4         -0.7375    1.8586    0.7943 H         1 <0>         0.0818
     44 H5          2.6837   -0.3146    0.1104 H         1 <0>         0.1449
     45 H6          4.0705   -0.7985    2.0862 H         1 <0>         0.1342
     46 H7          3.0178   -1.0552    4.2973 H         1 <0>         0.1363
     47 H8          0.5778   -0.8281    4.5333 H         1 <0>         0.1383
     48 H9         -1.9268   -0.1124   -1.3481 H         1 <0>         0.1610
     49 H10         1.4559   -2.3503   -5.5254 H         1 <0>         0.3965
     50 H11         3.0636   -2.4084   -5.0409 H         1 <0>         0.4114
     51 H12        -4.3995   -1.6261   -1.7143 H         1 <0>         0.2261
     52 H13        -2.6702    0.5200   -5.9527 H         1 <0>         0.1315
     53 H14        -4.2475    1.4226   -7.5835 H         1 <0>         0.1339
     54 H15        -7.5408    0.2292   -5.1164 H         1 <0>         0.1436
     55 H16        -8.7192    0.9249   -6.3406 H         1 <0>         0.1435
     56 H17       -10.2385    1.8569   -8.0309 H         1 <0>         0.1664
     57 H18        -5.4167    2.1042   -8.8186 H         1 <0>         0.1349
     58 H19        -8.0241    3.3093  -12.5086 H         1 <0>         0.0875
     59 H20        -8.8349    3.9939  -11.0751 H         1 <0>         0.1367
     60 H21        -7.8954    5.7556  -12.6154 H         1 <0>         0.1450
     61 H22        -7.2080    5.8211  -10.9747 H         1 <0>         0.1334
     62 H23        -5.9710    4.4538  -13.2568 H         1 <0>         0.4288
     63 H24        -4.0258    4.3930  -11.8349 H         1 <0>         0.1464
     64 H25        -5.0476    5.0603  -10.5389 H         1 <0>         0.1350
     65 H26        -4.9497    2.6344  -10.2871 H         1 <0>         0.1271
     66 H27        -5.4446    2.4066  -11.9854 H         1 <0>         0.0934
     67 H28        -5.5508    5.9531  -12.7225 H         1 <0>         0.4338
@<TRIPOS>BOND
     1    1    2 1
     2    1   41 1
     3    1   42 1
     4    1   43 1
     5    2    3 1
     6    2    4 1
     7    2   11 1
     8    4    9 ar
     9    4    5 ar
    10    5    6 ar
    11    5   44 1
    12    6    7 ar
    13    6   45 1
    14    7    8 ar
    15    7   46 1
    16    8    9 ar
    17    8   47 1
    18    9   10 1
    19   11   12 1
    20   12   16 2
    21   12   13 1
    22   13   14 2
    23   13   48 1
    24   14   15 1
    25   14   20 1
    26   15   16 1
    27   16   17 1
    28   17   18 2
    29   17   19 am
    30   19   49 1
    31   19   50 1
    32   20   24 1
    33   20   21 1
    34   21   22 2
    35   21   51 1
    36   22   23 1
    37   23   28 ar
    38   23   24 ar
    39   24   25 ar
    40   25   26 ar
    41   25   52 1
    42   26   27 ar
    43   26   53 1
    44   27   28 ar
    45   27   29 1
    46   28   54 1
    47   29   34 ar
    48   29   30 ar
    49   30   31 ar
    50   30   55 1
    51   31   32 ar
    52   31   56 1
    53   32   33 ar
    54   33   34 ar
    55   33   35 1
    56   34   57 1
    57   35   40 1
    58   35   36 1
    59   36   37 1
    60   36   58 1
    61   36   59 1
    62   37   38 1
    63   37   60 1
    64   37   61 1
    65   38   39 1
    66   38   62 1
    67   38   67 1
    68   39   40 1
    69   39   63 1
    70   39   64 1
    71   40   65 1
    72   40   66 1
@<TRIPOS>MOLECULE
CHEMBL1208894__1
   68    73     0     0     0
SMALL
USER_CHARGES

@<TRIPOS>ATOM
      1 C1          0.1573    1.6885   -0.2086 C.3       1 <0>        -0.1755
      2 C2         -0.0497    0.1790   -0.0687 C.3       1 <0>         0.1192
      3 H1          0.3525   -0.3259   -0.9470 H         1 <0>         0.0882
      4 C3         -1.5225   -0.1171    0.0505 C.ar      1 <0>        -0.0914
      5 C4         -2.1023   -0.2496    1.2984 C.ar      1 <0>        -0.0771
      6 C5         -3.4531   -0.5211    1.4079 C.ar      1 <0>        -0.1113
      7 C6         -4.2253   -0.6603    0.2695 C.ar      1 <0>        -0.0963
      8 C7         -3.6469   -0.5280   -0.9786 C.ar      1 <0>        -0.1085
      9 C8         -2.2958   -0.2506   -1.0888 C.ar      1 <0>        -0.0260
     10 Cl1        -1.5697   -0.0777   -2.6562 Cl        1 <0>        -0.0697
     11 O1          0.6262   -0.2881    1.1005 O.3       1 <0>        -0.2554
     12 C9          1.9426   -0.5944    0.9705 C.2       1 <0>         0.1942
     13 C10         2.6095   -0.3530   -0.2053 C.2       1 <0>        -0.2078
     14 C11         3.9365   -0.6756   -0.2977 C.2       1 <0>         0.0750
     15 S1          4.2817   -1.3459    1.3201 S.3       1 <0>         0.1545
     16 C12         2.6541   -1.1567    2.0289 C.2       1 <0>        -0.2564
     17 C13         2.2037   -1.4916    3.3258 C.2       1 <0>         0.6067
     18 O2          1.0435   -1.2907    3.6384 O.2       1 <0>        -0.5044
     19 N1          3.0577   -2.0332    4.2167 N.am      1 <0>        -0.8516
     20 N2          4.7984   -0.5205   -1.3795 N.pl3     1 <0>        -0.4023
     21 C14         4.5644   -0.9167   -2.6634 C.2       1 <0>         0.3039
     22 N3          5.5816   -0.6161   -3.4161 N.2       1 <0>        -0.4658
     23 C15         6.5394   -0.0064   -2.6696 C.ar      1 <0>         0.0501
     24 C16         6.0490    0.0693   -1.3537 C.ar      1 <0>         0.0835
     25 C17         6.8165    0.6558   -0.3564 C.ar      1 <0>        -0.0938
     26 C18         8.0499    1.1650   -0.6507 C.ar      1 <0>        -0.0689
     27 C19         8.5508    1.1008   -1.9543 C.ar      1 <0>        -0.1204
     28 C20         7.8015    0.5103   -2.9632 C.ar      1 <0>         0.0055
     29 C21         9.8916    1.6578   -2.2590 C.ar      1 <0>         0.1533
     30 C22        10.4109    1.6098   -3.5582 C.ar      1 <0>        -0.1619
     31 C23        11.6598    2.1379   -3.8026 C.ar      1 <0>         0.1619
     32 N4         12.3680    2.6853   -2.8321 N.ar      1 <0>        -0.5092
     33 C24        11.9169    2.7526   -1.5886 C.ar      1 <0>         0.4439
     34 C25        10.6651    2.2480   -1.2600 C.ar      1 <0>        -0.2077
     35 N5         12.7024    3.3394   -0.6028 N.pl3     1 <0>        -0.6264
     36 C26        12.2937    3.3054    0.8099 C.3       1 <0>         0.0914
     37 C27        13.4734    2.7964    1.6448 C.3       1 <0>        -0.0239
     38 N6         14.6557    3.6246    1.3757 N.4       1 <0>        -0.5071
     39 C28        15.0669    3.4690   -0.0253 C.3       1 <0>        -0.0214
     40 C29        13.9689    4.0064   -0.9422 C.3       1 <0>         0.0793
     41 H2          1.2226    1.9026   -0.2948 H         1 <0>         0.0638
     42 H3         -0.3582    2.0448   -1.1004 H         1 <0>         0.0834
     43 H4         -0.2448    2.1933    0.6697 H         1 <0>         0.0786
     44 H5         -1.4995   -0.1414    2.1880 H         1 <0>         0.1445
     45 H6         -3.9055   -0.6250    2.3830 H         1 <0>         0.1354
     46 H7         -5.2807   -0.8729    0.3556 H         1 <0>         0.1380
     47 H8         -4.2501   -0.6371   -1.8678 H         1 <0>         0.1394
     48 H9          2.0935    0.0854   -1.0467 H         1 <0>         0.1630
     49 H10         3.9815   -2.1931    3.9678 H         1 <0>         0.3954
     50 H11         2.7485   -2.2631    5.1069 H         1 <0>         0.4137
     51 H12         3.6658   -1.4088   -3.0051 H         1 <0>         0.2328
     52 H13         6.4379    0.7100    0.6536 H         1 <0>         0.1412
     53 H14         8.6419    1.6207    0.1293 H         1 <0>         0.1383
     54 H15         8.1880    0.4622   -3.9705 H         1 <0>         0.1497
     55 H16         9.8397    1.1639   -4.3590 H         1 <0>         0.1886
     56 H17        12.0655    2.1033   -4.8029 H         1 <0>         0.2163
     57 H18        10.2984    2.3082   -0.2459 H         1 <0>         0.1800
     58 H19        12.0199    4.3088    1.1362 H         1 <0>         0.1193
     59 H20        11.4437    2.6336    0.9293 H         1 <0>         0.1406
     60 H21        13.2216    2.8555    2.7037 H         1 <0>         0.1622
     61 H22        13.6868    1.7611    1.3791 H         1 <0>         0.1422
     62 H23        14.4344    4.5927    1.5545 H         1 <0>         0.4352
     63 H24        15.9893    4.0238   -0.1971 H         1 <0>         0.1614
     64 H25        15.2321    2.4133   -0.2405 H         1 <0>         0.1413
     65 H26        14.2259    3.7979   -1.9807 H         1 <0>         0.1188
     66 H27        13.8672    5.0818   -0.7958 H         1 <0>         0.1228
     67 H28        15.4106    3.3375    1.9804 H         1 <0>         0.4468
     68 H29        13.2442    3.0483   -3.0355 H         1 <0>         0.4369
@<TRIPOS>BOND
     1    1    2 1
     2    1   41 1
     3    1   42 1
     4    1   43 1
     5    2    3 1
     6    2    4 1
     7    2   11 1
     8    4    9 ar
     9    4    5 ar
    10    5    6 ar
    11    5   44 1
    12    6    7 ar
    13    6   45 1
    14    7    8 ar
    15    7   46 1
    16    8    9 ar
    17    8   47 1
    18    9   10 1
    19   11   12 1
    20   12   16 2
    21   12   13 1
    22   13   14 2
    23   13   48 1
    24   14   15 1
    25   14   20 1
    26   15   16 1
    27   16   17 1
    28   17   18 2
    29   17   19 am
    30   19   49 1
    31   19   50 1
    32   20   24 1
    33   20   21 1
    34   21   22 2
    35   21   51 1
    36   22   23 1
    37   23   28 ar
    38   23   24 ar
    39   24   25 ar
    40   25   26 ar
    41   25   52 1
    42   26   27 ar
    43   26   53 1
    44   27   28 ar
    45   27   29 1
    46   28   54 1
    47   29   34 ar
    48   29   30 ar
    49   30   31 ar
    50   30   55 1
    51   31   32 ar
    52   31   56 1
    53   32   33 ar
    54   32   68 1
    55   33   34 ar
    56   33   35 1
    57   34   57 1
    58   35   40 1
    59   35   36 1
    60   36   37 1
    61   36   58 1
    62   36   59 1
    63   37   38 1
    64   37   60 1
    65   37   61 1
    66   38   39 1
    67   38   62 1
    68   38   67 1
    69   39   40 1
    70   39   63 1
    71   39   64 1
    72   40   65 1
    73   40   66 1
@<TRIPOS>MOLECULE
CHEMBL525911
   55    58     0     0     0
SMALL
USER_CHARGES

@<TRIPOS>ATOM
      1 C1         -0.0184    1.5028    0.0103 C.3       1 <0>        -0.0789
      2 C2          0.0021   -0.0041    0.0020 C.2       1 <0>         0.1430
      3 C3          0.0084   -0.8571   -1.1815 C.ar      1 <0>        -0.2789
      4 C4         -0.0013   -0.6272   -2.5579 C.ar      1 <0>         0.2473
      5 N1          0.0083   -1.6391   -3.3990 N.ar      1 <0>        -0.5533
      6 C5          0.0278   -2.9028   -2.9879 C.ar      1 <0>         0.4415
      7 C6          0.0386   -3.2209   -1.6403 C.ar      1 <0>        -0.2773
      8 C7          0.0291   -2.1881   -0.7076 C.ar      1 <0>         0.2042
      9 N2          0.0346   -2.1207    0.6590 N.pl3     1 <0>        -0.3584
     10 N3          0.0230   -0.7772    1.0506 N.2       1 <0>        -0.2591
     11 C8          0.0533   -3.2195    1.5264 C.ar      1 <0>         0.1884
     12 C9          0.7428   -3.1443    2.7300 C.ar      1 <0>        -0.1102
     13 C10         0.7593   -4.2293    3.5841 C.ar      1 <0>        -0.0468
     14 C11         0.0907   -5.3906    3.2426 C.ar      1 <0>        -0.1148
     15 C12        -0.5973   -5.4693    2.0444 C.ar      1 <0>        -0.0072
     16 C13        -0.6221   -4.3844    1.1880 C.ar      1 <0>        -0.1363
     17 Cl1        -1.4347   -6.9293    1.6194 Cl        1 <0>        -0.0547
     18 C14         1.5073   -4.1478    4.8898 C.3       1 <0>        -0.0656
     19 C15         0.5714   -3.6264    5.9821 C.3       1 <0>        -0.1390
     20 C16         1.3194   -3.5450    7.2878 C.2       1 <0>         0.5166
     21 O1          2.4862   -3.8718    7.3397 O.2       1 <0>        -0.5420
     22 N4          0.6917   -3.1089    8.3979 N.am      1 <0>        -0.8572
     23 N5          0.0371   -3.9264   -3.9304 N.pl3     1 <0>        -0.7111
     24 C17         0.0586   -5.3245   -3.4932 C.3       1 <0>         0.1922
     25 H1          0.6539   -5.4118   -2.5843 H         1 <0>         0.0905
     26 C18        -1.3707   -5.7934   -3.2137 C.3       1 <0>        -0.1652
     27 C19         0.6654   -6.1800   -4.5753 C.ar      1 <0>        -0.0943
     28 C20         0.3668   -5.9313   -5.9019 C.ar      1 <0>        -0.1115
     29 C21         0.9235   -6.7160   -6.8945 C.ar      1 <0>        -0.1149
     30 C22         1.7790   -7.7492   -6.5605 C.ar      1 <0>        -0.1163
     31 C23         2.0782   -7.9973   -5.2340 C.ar      1 <0>        -0.1151
     32 C24         1.5250   -7.2099   -4.2416 C.ar      1 <0>        -0.1070
     33 H2          1.0042    1.8801    0.0026 H         1 <0>         0.0890
     34 H3         -0.5455    1.8639   -0.8728 H         1 <0>         0.0872
     35 H4         -0.5286    1.8543    0.9071 H         1 <0>         0.0827
     36 H5         -0.0171    0.3850   -2.9342 H         1 <0>         0.1688
     37 H6          0.0537   -4.2518   -1.3189 H         1 <0>         0.1361
     38 H7          1.2659   -2.2381    2.9974 H         1 <0>         0.1399
     39 H8          0.1059   -6.2380    3.9120 H         1 <0>         0.1412
     40 H9         -1.1625   -4.4444    0.2548 H         1 <0>         0.1399
     41 H10         1.8689   -5.1389    5.1639 H         1 <0>         0.0888
     42 H11         2.3535   -3.4693    4.7821 H         1 <0>         0.0875
     43 H12         0.2098   -2.6353    5.7081 H         1 <0>         0.0988
     44 H13        -0.2748   -4.3050    6.0899 H         1 <0>         0.0988
     45 H14        -0.2415   -2.8476    8.3565 H         1 <0>         0.4026
     46 H15         1.1732   -3.0565    9.2384 H         1 <0>         0.4027
     47 H16         0.0294   -3.7143   -4.8769 H         1 <0>         0.4078
     48 H17        -1.9660   -5.7061   -4.1226 H         1 <0>         0.0644
     49 H18        -1.3548   -6.8336   -2.8884 H         1 <0>         0.0716
     50 H19        -1.8096   -5.1747   -2.4310 H         1 <0>         0.0636
     51 H20        -0.3015   -5.1241   -6.1628 H         1 <0>         0.1212
     52 H21         0.6897   -6.5221   -7.9309 H         1 <0>         0.1249
     53 H22         2.2133   -8.3627   -7.3360 H         1 <0>         0.1241
     54 H23         2.7463   -8.8048   -4.9730 H         1 <0>         0.1254
     55 H24         1.7617   -7.4014   -3.2054 H         1 <0>         0.1243
@<TRIPOS>BOND
     1    1    2 1
     2    1   33 1
     3    1   34 1
     4    1   35 1
     5    2   10 2
     6    2    3 1
     7    3    8 ar
     8    3    4 ar
     9    4    5 ar
    10    4   36 1
    11    5    6 ar
    12    6    7 ar
    13    6   23 1
    14    7    8 ar
    15    7   37 1
    16    8    9 1
    17    9   10 1
    18    9   11 1
    19   11   16 ar
    20   11   12 ar
    21   12   13 ar
    22   12   38 1
    23   13   14 ar
    24   13   18 1
    25   14   15 ar
    26   14   39 1
    27   15   16 ar
    28   15   17 1
    29   16   40 1
    30   18   19 1
    31   18   41 1
    32   18   42 1
    33   19   20 1
    34   19   43 1
    35   19   44 1
    36   20   21 2
    37   20   22 am
    38   22   45 1
    39   22   46 1
    40   23   24 1
    41   23   47 1
    42   24   25 1
    43   24   26 1
    44   24   27 1
    45   26   48 1
    46   26   49 1
    47   26   50 1
    48   27   32 ar
    49   27   28 ar
    50   28   29 ar
    51   28   51 1
    52   29   30 ar
    53   29   52 1
    54   30   31 ar
    55   30   53 1
    56   31   32 ar
    57   31   54 1
    58   32   55 1
@<TRIPOS>MOLECULE
CHEMBL1209674
   52    56     0     0     0
SMALL
USER_CHARGES

@<TRIPOS>ATOM
      1 C1         -0.2377    1.5010   -0.1013 C.3       1 <0>        -0.1758
      2 C2          0.0024   -0.0064    0.0031 C.3       1 <0>         0.1173
      3 H1         -0.9537   -0.5206    0.1015 H         1 <0>         0.0891
      4 C3          0.8555   -0.2968    1.2109 C.ar      1 <0>        -0.0850
      5 C4          2.2262   -0.4160    1.0766 C.ar      1 <0>        -0.0764
      6 C5          3.0088   -0.6823    2.1844 C.ar      1 <0>        -0.1132
      7 C6          2.4214   -0.8295    3.4273 C.ar      1 <0>        -0.1008
      8 C7          1.0513   -0.7105    3.5628 C.ar      1 <0>        -0.1105
      9 C8          0.2678   -0.4383    2.4552 C.ar      1 <0>        -0.0267
     10 Cl1        -1.4527   -0.2821    2.6257 Cl        1 <0>        -0.0674
     11 O1          0.6709   -0.4649   -1.1737 O.3       1 <0>        -0.2589
     12 C9         -0.1062   -0.7743   -2.2432 C.2       1 <0>         0.1997
     13 C10        -1.4598   -0.5442   -2.2209 C.2       1 <0>        -0.2310
     14 C11        -2.2097   -0.8692   -3.3189 C.2       1 <0>         0.1114
     15 S1         -0.9850   -1.5257   -4.4391 S.3       1 <0>         0.1508
     16 C12         0.4497   -1.3286   -3.3949 C.2       1 <0>        -0.2744
     17 C13         1.7984   -1.6521   -3.6653 C.2       1 <0>         0.6120
     18 O2          2.6546   -1.4473   -2.8232 O.2       1 <0>        -0.5163
     19 N1          2.1376   -2.1872   -4.8549 N.am      1 <0>        -0.8529
     20 N2         -3.5804   -0.7250   -3.5125 N.pl3     1 <0>        -0.4134
     21 C14        -4.5649   -1.1326   -2.6609 C.2       1 <0>         0.2814
     22 N3         -5.7320   -0.8396   -3.1546 N.2       1 <0>        -0.4678
     23 C15        -5.5796   -0.2241   -4.3563 C.ar      1 <0>         0.0554
     24 C16        -4.1974   -0.1365   -4.6012 C.ar      1 <0>         0.0537
     25 C17        -3.7322    0.4572   -5.7669 C.ar      1 <0>        -0.1018
     26 C18        -4.6156    0.9617   -6.6791 C.ar      1 <0>        -0.0762
     27 C19        -5.9926    0.8859   -6.4494 C.ar      1 <0>        -0.0551
     28 C20        -6.4770    0.2889   -5.2930 C.ar      1 <0>        -0.0391
     29 C21        -6.9399    1.4387   -7.4482 C.ar      1 <0>         0.0044
     30 C22        -8.3206    1.3797   -7.2377 C.ar      1 <0>        -0.1666
     31 C23        -9.1662    1.9064   -8.1921 C.ar      1 <0>         0.1056
     32 N4         -8.6873    2.4593   -9.2901 N.ar      1 <0>        -0.4869
     33 C24        -7.3916    2.5352   -9.5271 C.ar      1 <0>         0.1045
     34 C25        -6.4760    2.0381   -8.6227 C.ar      1 <0>        -0.1663
     35 H2          0.7184    2.0152   -0.1997 H         1 <0>         0.0764
     36 H3         -0.8548    1.7110   -0.9749 H         1 <0>         0.0679
     37 H4         -0.7476    1.8508    0.7963 H         1 <0>         0.0809
     38 H5          2.6855   -0.3015    0.1059 H         1 <0>         0.1455
     39 H6          4.0796   -0.7757    2.0789 H         1 <0>         0.1335
     40 H7          3.0334   -1.0379    4.2924 H         1 <0>         0.1351
     41 H8          0.5925   -0.8259    4.5337 H         1 <0>         0.1374
     42 H9         -1.9268   -0.1126   -1.3480 H         1 <0>         0.1601
     43 H10         1.4559   -2.3503   -5.5254 H         1 <0>         0.3974
     44 H11         3.0634   -2.4093   -5.0405 H         1 <0>         0.4104
     45 H12        -4.3994   -1.6269   -1.7151 H         1 <0>         0.2236
     46 H13        -2.6703    0.5206   -5.9528 H         1 <0>         0.1309
     47 H14        -4.2475    1.4226   -7.5838 H         1 <0>         0.1411
     48 H15        -7.5408    0.2314   -5.1153 H         1 <0>         0.1417
     49 H16        -8.7194    0.9282   -6.3413 H         1 <0>         0.1388
     50 H17       -10.2344    1.8652   -8.0385 H         1 <0>         0.1591
     51 H18        -7.0430    2.9964  -10.4393 H         1 <0>         0.1588
     52 H19        -5.4167    2.1077   -8.8210 H         1 <0>         0.1385
@<TRIPOS>BOND
     1    1    2 1
     2    1   35 1
     3    1   36 1
     4    1   37 1
     5    2    3 1
     6    2    4 1
     7    2   11 1
     8    4    9 ar
     9    4    5 ar
    10    5    6 ar
    11    5   38 1
    12    6    7 ar
    13    6   39 1
    14    7    8 ar
    15    7   40 1
    16    8    9 ar
    17    8   41 1
    18    9   10 1
    19   11   12 1
    20   12   16 2
    21   12   13 1
    22   13   14 2
    23   13   42 1
    24   14   15 1
    25   14   20 1
    26   15   16 1
    27   16   17 1
    28   17   18 2
    29   17   19 am
    30   19   43 1
    31   19   44 1
    32   20   24 1
    33   20   21 1
    34   21   22 2
    35   21   45 1
    36   22   23 1
    37   23   28 ar
    38   23   24 ar
    39   24   25 ar
    40   25   26 ar
    41   25   46 1
    42   26   27 ar
    43   26   47 1
    44   27   28 ar
    45   27   29 1
    46   28   48 1
    47   29   34 ar
    48   29   30 ar
    49   30   31 ar
    50   30   49 1
    51   31   32 ar
    52   31   50 1
    53   32   33 ar
    54   33   34 ar
    55   33   51 1
    56   34   52 1
@<TRIPOS>MOLECULE
CHEMBL497167
   62    66     0     0     0
SMALL
USER_CHARGES

@<TRIPOS>ATOM
      1 C1         -0.0253    1.5151    0.0231 C.3       1 <0>        -0.0794
      2 C2          0.0033    0.0084    0.0124 C.2       1 <0>         0.1445
      3 C3          0.0196   -0.8426   -1.1725 C.ar      1 <0>        -0.2784
      4 C4          0.0154   -0.6105   -2.5485 C.ar      1 <0>         0.2478
      5 N1          0.0346   -1.6209   -3.3912 N.ar      1 <0>        -0.5530
      6 C5          0.0585   -2.8852   -2.9821 C.ar      1 <0>         0.4420
      7 C6          0.0639   -3.2055   -1.6350 C.ar      1 <0>        -0.2777
      8 C7          0.0447   -2.1742   -0.7006 C.ar      1 <0>         0.2043
      9 N2          0.0433   -2.1091    0.6661 N.pl3     1 <0>        -0.3592
     10 N3          0.0235   -0.7664    1.0598 N.2       1 <0>        -0.2587
     11 C8          0.0634   -3.2094    1.5319 C.ar      1 <0>         0.1914
     12 C9          0.7461   -3.1315    2.7366 C.ar      1 <0>        -0.1004
     13 C10         0.7637   -4.2278    3.5949 C.ar      1 <0>        -0.0065
     14 C11         0.0950   -5.3982    3.2387 C.ar      1 <0>        -0.1115
     15 C12        -0.5825   -5.4683    2.0367 C.ar      1 <0>        -0.0069
     16 C13        -0.6053   -4.3772    1.1868 C.ar      1 <0>        -0.1323
     17 Cl1        -1.4134   -6.9272    1.5951 Cl        1 <0>        -0.0510
     18 C14         1.4924   -4.1510    4.8844 C.ar      1 <0>        -0.0824
     19 C15         2.8072   -3.6928    4.9188 C.ar      1 <0>        -0.0824
     20 C16         3.4812   -3.6230    6.1211 C.ar      1 <0>        -0.1313
     21 C17         2.8560   -4.0073    7.2947 C.ar      1 <0>        -0.0921
     22 C18         1.5523   -4.4634    7.2733 C.ar      1 <0>        -0.1202
     23 C19         0.8603   -4.5330    6.0729 C.ar      1 <0>         0.1628
     24 N4         -0.4607   -4.9881    6.0500 N.am      1 <0>        -0.6740
     25 C20        -0.8547   -5.9563    6.9008 C.2       1 <0>         0.5115
     26 O1         -0.0865   -6.3749    7.7409 O.2       1 <0>        -0.5227
     27 C21        -2.2497   -6.5188    6.8083 C.3       1 <0>        -0.1720
     28 N5          0.0780   -3.9072   -3.9262 N.pl3     1 <0>        -0.7108
     29 C22         0.1044   -5.3058   -3.4912 C.3       1 <0>         0.1923
     30 H1          0.6955   -5.3916   -2.5794 H         1 <0>         0.0903
     31 C23        -1.3239   -5.7826   -3.2199 C.3       1 <0>        -0.1653
     32 C24         0.7212   -6.1564   -4.5716 C.ar      1 <0>        -0.0946
     33 C25         0.4283   -5.9070   -5.8993 C.ar      1 <0>        -0.1114
     34 C26         0.9941   -6.6871   -6.8903 C.ar      1 <0>        -0.1148
     35 C27         1.8532   -7.7164   -6.5536 C.ar      1 <0>        -0.1161
     36 C28         2.1469   -7.9653   -5.2259 C.ar      1 <0>        -0.1151
     37 C29         1.5844   -7.1824   -4.2351 C.ar      1 <0>        -0.1071
     38 H2          0.9953    1.8979    0.0207 H         1 <0>         0.0893
     39 H3         -0.5503    1.8748   -0.8618 H         1 <0>         0.0875
     40 H4         -0.5415    1.8624    0.9181 H         1 <0>         0.0831
     41 H5         -0.0041    0.4022   -2.9232 H         1 <0>         0.1691
     42 H6          0.0827   -4.2368   -1.3152 H         1 <0>         0.1360
     43 H7          1.2630   -2.2229    3.0083 H         1 <0>         0.1432
     44 H8          0.1069   -6.2502    3.9024 H         1 <0>         0.1401
     45 H9         -1.1402   -4.4349    0.2503 H         1 <0>         0.1420
     46 H10         3.2991   -3.3926    4.0054 H         1 <0>         0.1281
     47 H11         4.5007   -3.2676    6.1463 H         1 <0>         0.1282
     48 H12         3.3902   -3.9505    8.2316 H         1 <0>         0.1292
     49 H13         1.0700   -4.7621    8.1923 H         1 <0>         0.1433
     50 H14        -1.0941   -4.6073    5.4217 H         1 <0>         0.4119
     51 H15        -2.7884   -6.0234    6.0005 H         1 <0>         0.0789
     52 H16        -2.1974   -7.5888    6.6075 H         1 <0>         0.1017
     53 H17        -2.7723   -6.3509    7.7500 H         1 <0>         0.1010
     54 H18         0.0741   -3.6935   -4.8724 H         1 <0>         0.4080
     55 H19        -1.9149   -5.6968   -4.1317 H         1 <0>         0.0646
     56 H20        -1.3042   -6.8233   -2.8962 H         1 <0>         0.0716
     57 H21        -1.7700   -5.1674   -2.4385 H         1 <0>         0.0635
     58 H22        -0.2429   -5.1028   -6.1623 H         1 <0>         0.1212
     59 H23         0.7647   -6.4927   -7.9276 H         1 <0>         0.1250
     60 H24         2.2947   -8.3264   -7.3278 H         1 <0>         0.1242
     61 H25         2.8178   -8.7697   -4.9628 H         1 <0>         0.1254
     62 H26         1.8167   -7.3744   -3.1980 H         1 <0>         0.1241
@<TRIPOS>BOND
     1    1    2 1
     2    1   38 1
     3    1   39 1
     4    1   40 1
     5    2   10 2
     6    2    3 1
     7    3    8 ar
     8    3    4 ar
     9    4    5 ar
    10    4   41 1
    11    5    6 ar
    12    6    7 ar
    13    6   28 1
    14    7    8 ar
    15    7   42 1
    16    8    9 1
    17    9   10 1
    18    9   11 1
    19   11   16 ar
    20   11   12 ar
    21   12   13 ar
    22   12   43 1
    23   13   14 ar
    24   13   18 1
    25   14   15 ar
    26   14   44 1
    27   15   16 ar
    28   15   17 1
    29   16   45 1
    30   18   23 ar
    31   18   19 ar
    32   19   20 ar
    33   19   46 1
    34   20   21 ar
    35   20   47 1
    36   21   22 ar
    37   21   48 1
    38   22   23 ar
    39   22   49 1
    40   23   24 1
    41   24   25 am
    42   24   50 1
    43   25   26 2
    44   25   27 1
    45   27   51 1
    46   27   52 1
    47   27   53 1
    48   28   29 1
    49   28   54 1
    50   29   30 1
    51   29   31 1
    52   29   32 1
    53   31   55 1
    54   31   56 1
    55   31   57 1
    56   32   37 ar
    57   32   33 ar
    58   33   34 ar
    59   33   58 1
    60   34   35 ar
    61   34   59 1
    62   35   36 ar
    63   35   60 1
    64   36   37 ar
    65   36   61 1
    66   37   62 1
@<TRIPOS>MOLECULE
CHEMBL1208965
   73    78     0     0     0
SMALL
USER_CHARGES

@<TRIPOS>ATOM
      1 C1         -0.2375    1.5010   -0.1010 C.3       1 <0>        -0.1755
      2 C2          0.0024   -0.0065    0.0031 C.3       1 <0>         0.1178
      3 H1         -0.9538   -0.5206    0.1014 H         1 <0>         0.0889
      4 C3          0.8554   -0.2972    1.2110 C.ar      1 <0>        -0.0866
      5 C4          2.2260   -0.4166    1.0767 C.ar      1 <0>        -0.0767
      6 C5          3.0086   -0.6832    2.1845 C.ar      1 <0>        -0.1127
      7 C6          2.4211   -0.8305    3.4274 C.ar      1 <0>        -0.0996
      8 C7          1.0509   -0.7113    3.5628 C.ar      1 <0>        -0.1100
      9 C8          0.2676   -0.4388    2.4552 C.ar      1 <0>        -0.0266
     10 Cl1        -1.4529   -0.2824    2.6256 Cl        1 <0>        -0.0680
     11 O1          0.6709   -0.4649   -1.1737 O.3       1 <0>        -0.2583
     12 C9         -0.1062   -0.7743   -2.2432 C.2       1 <0>         0.1994
     13 C10        -1.4598   -0.5443   -2.2209 C.2       1 <0>        -0.2286
     14 C11        -2.2098   -0.8698   -3.3187 C.2       1 <0>         0.1080
     15 S1         -0.9851   -1.5266   -4.4387 S.3       1 <0>         0.1483
     16 C12         0.4497   -1.3286   -3.3950 C.2       1 <0>        -0.2722
     17 C13         1.7984   -1.6520   -3.6654 C.2       1 <0>         0.6109
     18 O2          2.6546   -1.4471   -2.8232 O.2       1 <0>        -0.5140
     19 N1          2.1376   -2.1871   -4.8549 N.am      1 <0>        -0.8529
     20 N2         -3.5804   -0.7255   -3.5123 N.pl3     1 <0>        -0.4130
     21 C14        -4.5649   -1.1323   -2.6608 C.2       1 <0>         0.2859
     22 N3         -5.7320   -0.8393   -3.1548 N.2       1 <0>        -0.4709
     23 C15        -5.5797   -0.2244   -4.3570 C.ar      1 <0>         0.0621
     24 C16        -4.1979   -0.1372   -4.6019 C.ar      1 <0>         0.0480
     25 C17        -3.7322    0.4559   -5.7676 C.ar      1 <0>        -0.0967
     26 C18        -4.6239    0.9630   -6.6855 C.ar      1 <0>        -0.0890
     27 C19        -5.9999    0.8848   -6.4507 C.ar      1 <0>        -0.0371
     28 C20        -6.4790    0.2873   -5.2931 C.ar      1 <0>        -0.0535
     29 C21        -6.9520    1.4351   -7.4468 C.ar      1 <0>        -0.1357
     30 C22        -6.4827    2.0278   -8.6247 C.ar      1 <0>        -0.0232
     31 C23        -7.4061    2.5256   -9.5224 C.ar      1 <0>        -0.2367
     32 C24        -8.7632    2.4226   -9.2291 C.ar      1 <0>         0.3944
     33 N4         -9.1738    1.8560   -8.1048 N.ar      1 <0>        -0.5306
     34 C25        -8.3240    1.3638   -7.2254 C.ar      1 <0>         0.1659
     35 N5         -9.6988    2.9211  -10.1274 N.pl3     1 <0>        -0.7236
     36 C26        -9.2548    3.5501  -11.3738 C.3       1 <0>         0.1490
     37 C27        -8.9434    5.0277  -11.1190 C.3       1 <0>        -0.1699
     38 C28        -8.5571    5.6970  -12.4398 C.3       1 <0>        -0.0041
     39 N6         -9.6688    5.5868  -13.3918 N.4       1 <0>        -0.3866
     40 C29        -9.9259    4.1740  -13.6960 C.3       1 <0>        -0.0014
     41 C30       -10.3649    3.4462  -12.4236 C.3       1 <0>        -0.1568
     42 C31        -9.3233    6.2977  -14.6301 C.3       1 <0>        -0.0477
     43 H2          0.7187    2.0151   -0.1993 H         1 <0>         0.0766
     44 H3         -0.8545    1.7112   -0.9747 H         1 <0>         0.0668
     45 H4         -0.7474    1.8506    0.7966 H         1 <0>         0.0813
     46 H5          2.6855   -0.3020    0.1061 H         1 <0>         0.1451
     47 H6          4.0793   -0.7767    2.0791 H         1 <0>         0.1340
     48 H7          3.0330   -1.0391    4.2925 H         1 <0>         0.1359
     49 H8          0.5921   -0.8268    4.5336 H         1 <0>         0.1379
     50 H9         -1.9268   -0.1124   -1.3481 H         1 <0>         0.1603
     51 H10         1.4559   -2.3503   -5.5254 H         1 <0>         0.3968
     52 H11         3.0634   -2.4091   -5.0405 H         1 <0>         0.4109
     53 H12        -4.3997   -1.6257   -1.7144 H         1 <0>         0.2240
     54 H13        -2.6703    0.5198   -5.9540 H         1 <0>         0.1301
     55 H14        -4.2588    1.4238   -7.5914 H         1 <0>         0.1361
     56 H15        -7.5421    0.2290   -5.1124 H         1 <0>         0.1389
     57 H16        -5.4238    2.0945   -8.8263 H         1 <0>         0.1400
     58 H17        -7.0794    2.9897  -10.4413 H         1 <0>         0.1295
     59 H18        -8.6963    0.9047   -6.3214 H         1 <0>         0.1643
     60 H19       -10.6458    2.8526   -9.9293 H         1 <0>         0.4104
     61 H20        -8.3601    3.0454  -11.7382 H         1 <0>         0.0988
     62 H21        -9.8241    5.5193  -10.7058 H         1 <0>         0.0942
     63 H22        -8.1160    5.1090  -10.4141 H         1 <0>         0.1162
     64 H23        -8.3345    6.7491  -12.2619 H         1 <0>         0.1348
     65 H24        -7.6762    5.2048  -12.8519 H         1 <0>         0.1310
     66 H25       -10.7139    4.1018  -14.4456 H         1 <0>         0.1373
     67 H26        -9.0158    3.7143  -14.0814 H         1 <0>         0.1325
     68 H27       -10.5536    2.3970  -12.6511 H         1 <0>         0.1210
     69 H28       -11.2751    3.9050  -12.0375 H         1 <0>         0.0960
     70 H29        -8.4268    5.8557  -15.0648 H         1 <0>         0.1228
     71 H30       -10.1483    6.2165  -15.3379 H         1 <0>         0.1251
     72 H31        -9.1386    7.3484  -14.4064 H         1 <0>         0.1250
     73 H32       -10.4970    5.9993  -12.9895 H         1 <0>         0.4258
@<TRIPOS>BOND
     1    1    2 1
     2    1   43 1
     3    1   44 1
     4    1   45 1
     5    2    3 1
     6    2    4 1
     7    2   11 1
     8    4    9 ar
     9    4    5 ar
    10    5    6 ar
    11    5   46 1
    12    6    7 ar
    13    6   47 1
    14    7    8 ar
    15    7   48 1
    16    8    9 ar
    17    8   49 1
    18    9   10 1
    19   11   12 1
    20   12   16 2
    21   12   13 1
    22   13   14 2
    23   13   50 1
    24   14   15 1
    25   14   20 1
    26   15   16 1
    27   16   17 1
    28   17   18 2
    29   17   19 am
    30   19   51 1
    31   19   52 1
    32   20   24 1
    33   20   21 1
    34   21   22 2
    35   21   53 1
    36   22   23 1
    37   23   28 ar
    38   23   24 ar
    39   24   25 ar
    40   25   26 ar
    41   25   54 1
    42   26   27 ar
    43   26   55 1
    44   27   28 ar
    45   27   29 1
    46   28   56 1
    47   29   34 ar
    48   29   30 ar
    49   30   31 ar
    50   30   57 1
    51   31   32 ar
    52   31   58 1
    53   32   33 ar
    54   32   35 1
    55   33   34 ar
    56   34   59 1
    57   35   36 1
    58   35   60 1
    59   36   41 1
    60   36   37 1
    61   36   61 1
    62   37   38 1
    63   37   62 1
    64   37   63 1
    65   38   39 1
    66   38   64 1
    67   38   65 1
    68   39   40 1
    69   39   42 1
    70   39   73 1
    71   40   41 1
    72   40   66 1
    73   40   67 1
    74   41   68 1
    75   41   69 1
    76   42   70 1
    77   42   71 1
    78   42   72 1
@<TRIPOS>MOLECULE
CHEMBL1208965__1
   74    79     0     0     0
SMALL
USER_CHARGES

@<TRIPOS>ATOM
      1 C1         -0.2375    1.5010   -0.1010 C.3       1 <0>        -0.1757
      2 C2          0.0024   -0.0065    0.0031 C.3       1 <0>         0.1192
      3 H1         -0.9538   -0.5206    0.1014 H         1 <0>         0.0880
      4 C3          0.8554   -0.2972    1.2110 C.ar      1 <0>        -0.0904
      5 C4          2.2260   -0.4166    1.0767 C.ar      1 <0>        -0.0768
      6 C5          3.0086   -0.6832    2.1845 C.ar      1 <0>        -0.1113
      7 C6          2.4211   -0.8305    3.4274 C.ar      1 <0>        -0.0969
      8 C7          1.0509   -0.7113    3.5628 C.ar      1 <0>        -0.1089
      9 C8          0.2676   -0.4388    2.4552 C.ar      1 <0>        -0.0261
     10 Cl1        -1.4529   -0.2824    2.6256 Cl        1 <0>        -0.0703
     11 O1          0.6709   -0.4649   -1.1737 O.3       1 <0>        -0.2560
     12 C9         -0.1062   -0.7743   -2.2432 C.2       1 <0>         0.1942
     13 C10        -1.4598   -0.5443   -2.2209 C.2       1 <0>        -0.2115
     14 C11        -2.2098   -0.8698   -3.3187 C.2       1 <0>         0.0794
     15 S1         -0.9851   -1.5266   -4.4387 S.3       1 <0>         0.1554
     16 C12         0.4497   -1.3286   -3.3950 C.2       1 <0>        -0.2581
     17 C13         1.7984   -1.6520   -3.6654 C.2       1 <0>         0.6071
     18 O2          2.6546   -1.4471   -2.8232 O.2       1 <0>        -0.5063
     19 N1          2.1376   -2.1871   -4.8549 N.am      1 <0>        -0.8514
     20 N2         -3.5804   -0.7255   -3.5123 N.pl3     1 <0>        -0.4045
     21 C14        -4.5649   -1.1323   -2.6608 C.2       1 <0>         0.3027
     22 N3         -5.7320   -0.8393   -3.1548 N.2       1 <0>        -0.4723
     23 C15        -5.5797   -0.2244   -4.3570 C.ar      1 <0>         0.0598
     24 C16        -4.1979   -0.1372   -4.6019 C.ar      1 <0>         0.0681
     25 C17        -3.7322    0.4559   -5.7676 C.ar      1 <0>        -0.0855
     26 C18        -4.6239    0.9630   -6.6855 C.ar      1 <0>        -0.0878
     27 C19        -5.9999    0.8848   -6.4507 C.ar      1 <0>        -0.0830
     28 C20        -6.4790    0.2873   -5.2931 C.ar      1 <0>        -0.0261
     29 C21        -6.9520    1.4351   -7.4468 C.ar      1 <0>        -0.0474
     30 C22        -8.3318    1.3686   -7.2214 C.ar      1 <0>         0.0383
     31 C23        -9.1793    1.8943   -8.1762 C.ar      1 <0>        -0.1898
     32 C24        -8.6381    2.4688   -9.3231 C.ar      1 <0>         0.4302
     33 N4         -7.3272    2.5152   -9.5057 N.ar      1 <0>        -0.4840
     34 C25        -6.4852    2.0295   -8.6152 C.ar      1 <0>         0.1410
     35 N5         -9.4843    3.0001  -10.2888 N.pl3     1 <0>        -0.7092
     36 C26       -10.9358    2.9534  -10.0966 C.3       1 <0>         0.1356
     37 C27       -11.4746    1.6072  -10.5892 C.3       1 <0>        -0.1715
     38 C28       -12.9992    1.5958  -10.4593 C.3       1 <0>        -0.0054
     39 N6        -13.5709    2.6789  -11.2683 N.4       1 <0>        -0.3882
     40 C29       -13.1152    3.9769  -10.7564 C.3       1 <0>        -0.0030
     41 C30       -11.5950    4.0799  -10.8977 C.3       1 <0>        -0.1582
     42 C31       -15.0371    2.6157  -11.2025 C.3       1 <0>        -0.0498
     43 H2          0.7187    2.0151   -0.1993 H         1 <0>         0.0784
     44 H3         -0.8545    1.7112   -0.9747 H         1 <0>         0.0643
     45 H4         -0.7474    1.8506    0.7966 H         1 <0>         0.0827
     46 H5          2.6855   -0.3020    0.1061 H         1 <0>         0.1449
     47 H6          4.0793   -0.7767    2.0791 H         1 <0>         0.1353
     48 H7          3.0330   -1.0391    4.2925 H         1 <0>         0.1377
     49 H8          0.5921   -0.8268    4.5336 H         1 <0>         0.1390
     50 H9         -1.9268   -0.1124   -1.3481 H         1 <0>         0.1620
     51 H10         1.4559   -2.3503   -5.5254 H         1 <0>         0.3959
     52 H11         3.0634   -2.4091   -5.0405 H         1 <0>         0.4135
     53 H12        -4.3997   -1.6257   -1.7144 H         1 <0>         0.2303
     54 H13        -2.6703    0.5198   -5.9540 H         1 <0>         0.1398
     55 H14        -4.2588    1.4238   -7.5914 H         1 <0>         0.1384
     56 H15        -7.5421    0.2290   -5.1124 H         1 <0>         0.1421
     57 H16        -8.7241    0.9167   -6.3223 H         1 <0>         0.1800
     58 H17       -10.2495    1.8599   -8.0352 H         1 <0>         0.1779
     59 H18        -5.4223    2.0895   -8.7965 H         1 <0>         0.2128
     60 H19        -9.1138    3.4018  -11.0902 H         1 <0>         0.4233
     61 H20       -11.1675    3.0749   -9.0384 H         1 <0>         0.1166
     62 H21       -11.1972    1.4642  -11.6335 H         1 <0>         0.1018
     63 H22       -11.0519    0.8034   -9.9863 H         1 <0>         0.1198
     64 H23       -13.3861    0.6386  -10.8090 H         1 <0>         0.1432
     65 H24       -13.2755    1.7385   -9.4146 H         1 <0>         0.1362
     66 H25       -13.5876    4.7776  -11.3254 H         1 <0>         0.1453
     67 H26       -13.3890    4.0688   -9.7053 H         1 <0>         0.1374
     68 H27       -11.2584    5.0435  -10.5154 H         1 <0>         0.1267
     69 H28       -11.3201    3.9883  -11.9485 H         1 <0>         0.1021
     70 H29       -15.3594    2.7258  -10.1671 H         1 <0>         0.1260
     71 H30       -15.4627    3.4197  -11.8031 H         1 <0>         0.1295
     72 H31       -15.3770    1.6547  -11.5887 H         1 <0>         0.1293
     73 H32       -13.2744    2.5737  -12.2270 H         1 <0>         0.4277
     74 H33        -6.9773    2.9207  -10.3144 H         1 <0>         0.4467
@<TRIPOS>BOND
     1    1    2 1
     2    1   43 1
     3    1   44 1
     4    1   45 1
     5    2    3 1
     6    2    4 1
     7    2   11 1
     8    4    9 ar
     9    4    5 ar
    10    5    6 ar
    11    5   46 1
    12    6    7 ar
    13    6   47 1
    14    7    8 ar
    15    7   48 1
    16    8    9 ar
    17    8   49 1
    18    9   10 1
    19   11   12 1
    20   12   16 2
    21   12   13 1
    22   13   14 2
    23   13   50 1
    24   14   15 1
    25   14   20 1
    26   15   16 1
    27   16   17 1
    28   17   18 2
    29   17   19 am
    30   19   51 1
    31   19   52 1
    32   20   24 1
    33   20   21 1
    34   21   22 2
    35   21   53 1
    36   22   23 1
    37   23   28 ar
    38   23   24 ar
    39   24   25 ar
    40   25   26 ar
    41   25   54 1
    42   26   27 ar
    43   26   55 1
    44   27   28 ar
    45   27   29 1
    46   28   56 1
    47   29   34 ar
    48   29   30 ar
    49   30   31 ar
    50   30   57 1
    51   31   32 ar
    52   31   58 1
    53   32   33 ar
    54   32   35 1
    55   33   34 ar
    56   33   74 1
    57   34   59 1
    58   35   36 1
    59   35   60 1
    60   36   41 1
    61   36   37 1
    62   36   61 1
    63   37   38 1
    64   37   62 1
    65   37   63 1
    66   38   39 1
    67   38   64 1
    68   38   65 1
    69   39   40 1
    70   39   42 1
    71   39   73 1
    72   40   41 1
    73   40   66 1
    74   40   67 1
    75   41   68 1
    76   41   69 1
    77   42   70 1
    78   42   71 1
    79   42   72 1
@<TRIPOS>MOLECULE
CHEMBL1208964
   74    79     0     0     0
SMALL
USER_CHARGES

@<TRIPOS>ATOM
      1 C1         -0.0052    1.5022    0.2557 C.3       1 <0>        -0.1753
      2 C2          0.0030   -0.0065    0.0012 C.3       1 <0>         0.1193
      3 H1          0.5787   -0.5035    0.7820 H         1 <0>         0.0884
      4 C3          0.6297   -0.2862   -1.3404 C.ar      1 <0>        -0.0916
      5 C4         -0.1684   -0.4296   -2.4599 C.ar      1 <0>        -0.0772
      6 C5          0.4063   -0.6861   -3.6905 C.ar      1 <0>        -0.1114
      7 C6          1.7797   -0.7994   -3.8026 C.ar      1 <0>        -0.0961
      8 C7          2.5787   -0.6562   -2.6841 C.ar      1 <0>        -0.1083
      9 C8          2.0043   -0.3938   -1.4529 C.ar      1 <0>        -0.0260
     10 Cl1         3.0077   -0.2072   -0.0486 Cl        1 <0>        -0.0692
     11 O1         -1.3386   -0.4987    0.0122 O.3       1 <0>        -0.2556
     12 C9         -1.8684   -0.8173    1.2210 C.2       1 <0>         0.1952
     13 C10        -1.1785   -0.5658    2.3813 C.2       1 <0>        -0.2095
     14 C11        -1.7460   -0.9014    3.5808 C.2       1 <0>         0.0786
     15 S1         -3.3113   -1.5995    3.0825 S.3       1 <0>         0.1518
     16 C12        -3.1295   -1.4030    1.3173 C.2       1 <0>        -0.2582
     17 C13        -4.0298   -1.7523    0.2856 C.2       1 <0>         0.6067
     18 O2         -3.7339   -1.5434   -0.8776 O.2       1 <0>        -0.5046
     19 N1         -5.2157   -2.3164    0.5884 N.am      1 <0>        -0.8520
     20 N2         -1.2323   -0.7397    4.8642 N.pl3     1 <0>        -0.4035
     21 C14         0.0073   -1.1142    5.2924 C.2       1 <0>         0.3030
     22 N3          0.1555   -0.8135    6.5491 N.2       1 <0>        -0.4652
     23 C15        -0.9770   -0.2255    7.0159 C.ar      1 <0>         0.0519
     24 C16        -1.8816   -0.1640    5.9409 C.ar      1 <0>         0.0800
     25 C17        -3.1382    0.3992    6.1186 C.ar      1 <0>        -0.0952
     26 C18        -3.4992    0.8992    7.3380 C.ar      1 <0>        -0.0710
     27 C19        -2.6106    0.8489    8.4161 C.ar      1 <0>        -0.1157
     28 C20        -1.3529    0.2817    8.2600 C.ar      1 <0>         0.0033
     29 C21        -3.0163    1.3957    9.7342 C.ar      1 <0>         0.1483
     30 C22        -2.1409    1.3613   10.8261 C.ar      1 <0>        -0.1696
     31 C23        -2.5532    1.8794   12.0344 C.ar      1 <0>         0.1663
     32 N4         -3.7566    2.4044   12.1737 N.ar      1 <0>        -0.5071
     33 C24        -4.6175    2.4582   11.1685 C.ar      1 <0>         0.4480
     34 C25        -4.2774    1.9625    9.9162 C.ar      1 <0>        -0.2190
     35 N5         -5.8729    3.0216   11.3675 N.pl3     1 <0>        -0.7111
     36 C26        -6.8310    3.0851   10.2611 C.3       1 <0>         0.1361
     37 C27        -6.5702    4.3442    9.4293 C.3       1 <0>        -0.1724
     38 C28        -7.6233    4.4458    8.3238 C.3       1 <0>        -0.0057
     39 N6         -8.9611    4.5217    8.9229 N.4       1 <0>        -0.3882
     40 C29        -9.2463    3.2866    9.6629 C.3       1 <0>        -0.0031
     41 C30        -8.2557    3.1404   10.8200 C.3       1 <0>        -0.1582
     42 C31        -9.9619    4.6974    7.8620 C.3       1 <0>        -0.0500
     43 H2          1.0180    1.8776    0.2474 H         1 <0>         0.0835
     44 H3         -0.5810    1.9992   -0.5250 H         1 <0>         0.0782
     45 H4         -0.4586    1.7045    1.2261 H         1 <0>         0.0635
     46 H5         -1.2413   -0.3416   -2.3729 H         1 <0>         0.1442
     47 H6         -0.2177   -0.7984   -4.5648 H         1 <0>         0.1354
     48 H7          2.2282   -1.0002   -4.7643 H         1 <0>         0.1381
     49 H8          3.6514   -0.7451   -2.7717 H         1 <0>         0.1396
     50 H9         -0.2002   -0.1093    2.3478 H         1 <0>         0.1630
     51 H10        -5.4513   -2.4827    1.5146 H         1 <0>         0.3953
     52 H11        -5.8337   -2.5561   -0.1198 H         1 <0>         0.4136
     53 H12         0.7563   -1.5913    4.6778 H         1 <0>         0.2324
     54 H13        -3.8314    0.4425    5.2916 H         1 <0>         0.1389
     55 H14        -4.4778    1.3367    7.4697 H         1 <0>         0.1353
     56 H15        -0.6660    0.2443    9.0926 H         1 <0>         0.1499
     57 H16        -1.1546    0.9337   10.7228 H         1 <0>         0.1860
     58 H17        -1.8822    1.8552   12.8804 H         1 <0>         0.2147
     59 H18        -4.9800    2.0116    9.0975 H         1 <0>         0.1738
     60 H19        -6.1143    3.3727   12.2389 H         1 <0>         0.4234
     61 H20        -6.7203    2.2018    9.6320 H         1 <0>         0.1151
     62 H21        -6.6302    5.2232   10.0711 H         1 <0>         0.1023
     63 H22        -5.5778    4.2861    8.9824 H         1 <0>         0.1199
     64 H23        -7.4404    5.3411    7.7296 H         1 <0>         0.1432
     65 H24        -7.5622    3.5665    7.6826 H         1 <0>         0.1354
     66 H25       -10.2617    3.3261   10.0573 H         1 <0>         0.1454
     67 H26        -9.1507    2.4320    8.9931 H         1 <0>         0.1370
     68 H27        -8.4680    2.2218   11.3670 H         1 <0>         0.1268
     69 H28        -8.3507    3.9944   11.4906 H         1 <0>         0.1023
     70 H29        -9.9175    3.8508    7.1769 H         1 <0>         0.1257
     71 H30       -10.9558    4.7539    8.3058 H         1 <0>         0.1297
     72 H31        -9.7549    5.6178    7.3160 H         1 <0>         0.1292
     73 H32        -9.0017    5.3078    9.5542 H         1 <0>         0.4280
     74 H33        -4.0179    2.7609   13.0371 H         1 <0>         0.4443
@<TRIPOS>BOND
     1    1    2 1
     2    1   43 1
     3    1   44 1
     4    1   45 1
     5    2    3 1
     6    2    4 1
     7    2   11 1
     8    4    9 ar
     9    4    5 ar
    10    5    6 ar
    11    5   46 1
    12    6    7 ar
    13    6   47 1
    14    7    8 ar
    15    7   48 1
    16    8    9 ar
    17    8   49 1
    18    9   10 1
    19   11   12 1
    20   12   16 2
    21   12   13 1
    22   13   14 2
    23   13   50 1
    24   14   15 1
    25   14   20 1
    26   15   16 1
    27   16   17 1
    28   17   18 2
    29   17   19 am
    30   19   51 1
    31   19   52 1
    32   20   24 1
    33   20   21 1
    34   21   22 2
    35   21   53 1
    36   22   23 1
    37   23   28 ar
    38   23   24 ar
    39   24   25 ar
    40   25   26 ar
    41   25   54 1
    42   26   27 ar
    43   26   55 1
    44   27   28 ar
    45   27   29 1
    46   28   56 1
    47   29   34 ar
    48   29   30 ar
    49   30   31 ar
    50   30   57 1
    51   31   32 ar
    52   31   58 1
    53   32   33 ar
    54   32   74 1
    55   33   34 ar
    56   33   35 1
    57   34   59 1
    58   35   36 1
    59   35   60 1
    60   36   41 1
    61   36   37 1
    62   36   61 1
    63   37   38 1
    64   37   62 1
    65   37   63 1
    66   38   39 1
    67   38   64 1
    68   38   65 1
    69   39   40 1
    70   39   42 1
    71   39   73 1
    72   40   41 1
    73   40   66 1
    74   40   67 1
    75   41   68 1
    76   41   69 1
    77   42   70 1
    78   42   71 1
    79   42   72 1
@<TRIPOS>MOLECULE
CHEMBL1208964__1
   73    78     0     0     0
SMALL
USER_CHARGES

@<TRIPOS>ATOM
      1 C1         -0.2375    1.5010   -0.1011 C.3       1 <0>        -0.1753
      2 C2          0.0024   -0.0065    0.0031 C.3       1 <0>         0.1180
      3 H1         -0.9538   -0.5206    0.1014 H         1 <0>         0.0891
      4 C3          0.8554   -0.2972    1.2110 C.ar      1 <0>        -0.0878
      5 C4          2.2260   -0.4166    1.0767 C.ar      1 <0>        -0.0770
      6 C5          3.0086   -0.6831    2.1845 C.ar      1 <0>        -0.1127
      7 C6          2.4211   -0.8305    3.4274 C.ar      1 <0>        -0.0987
      8 C7          1.0510   -0.7113    3.5628 C.ar      1 <0>        -0.1095
      9 C8          0.2676   -0.4388    2.4552 C.ar      1 <0>        -0.0264
     10 Cl1        -1.4529   -0.2824    2.6256 Cl        1 <0>        -0.0675
     11 O1          0.6709   -0.4649   -1.1737 O.3       1 <0>        -0.2579
     12 C9         -0.1062   -0.7743   -2.2432 C.2       1 <0>         0.2000
     13 C10        -1.4598   -0.5443   -2.2209 C.2       1 <0>        -0.2263
     14 C11        -2.2098   -0.8698   -3.3186 C.2       1 <0>         0.1062
     15 S1         -0.9851   -1.5266   -4.4387 S.3       1 <0>         0.1451
     16 C12         0.4497   -1.3286   -3.3949 C.2       1 <0>        -0.2714
     17 C13         1.7985   -1.6515   -3.6656 C.2       1 <0>         0.6103
     18 O2          2.6548   -1.4461   -2.8236 O.2       1 <0>        -0.5121
     19 N1          2.1377   -2.1867   -4.8551 N.am      1 <0>        -0.8533
     20 N2         -3.5805   -0.7255   -3.5123 N.pl3     1 <0>        -0.4121
     21 C14        -4.5650   -1.1324   -2.6606 C.2       1 <0>         0.2872
     22 N3         -5.7321   -0.8400   -3.1546 N.2       1 <0>        -0.4668
     23 C15        -5.5796   -0.2254   -4.3567 C.ar      1 <0>         0.0576
     24 C16        -4.1975   -0.1374   -4.6013 C.ar      1 <0>         0.0558
     25 C17        -3.7322    0.4565   -5.7669 C.ar      1 <0>        -0.1019
     26 C18        -4.6156    0.9611   -6.6791 C.ar      1 <0>        -0.0793
     27 C19        -5.9926    0.8848   -6.4497 C.ar      1 <0>        -0.0634
     28 C20        -6.4770    0.2867   -5.2941 C.ar      1 <0>        -0.0308
     29 C21        -6.9399    1.4369   -7.4490 C.ar      1 <0>         0.0520
     30 C22        -8.3225    1.3768   -7.2377 C.ar      1 <0>        -0.2140
     31 C23        -9.1709    1.9008   -8.1884 C.ar      1 <0>         0.1603
     32 N4         -8.6983    2.4555   -9.2895 N.ar      1 <0>        -0.5385
     33 C24        -7.3984    2.5343   -9.5312 C.ar      1 <0>         0.3997
     34 C25        -6.4761    2.0346   -8.6206 C.ar      1 <0>        -0.2369
     35 N5         -6.9522    3.1284  -10.7064 N.pl3     1 <0>        -0.7252
     36 C26        -5.5162    3.2197  -10.9815 C.3       1 <0>         0.1495
     37 C27        -4.9458    4.4748  -10.3147 C.3       1 <0>        -0.1708
     38 C28        -3.4637    4.6067  -10.6717 C.3       1 <0>        -0.0045
     39 N6         -3.3152    4.7141  -12.1281 N.4       1 <0>        -0.3865
     40 C29        -3.7943    3.4839  -12.7697 C.3       1 <0>        -0.0016
     41 C30        -5.2891    3.3089  -12.4934 C.3       1 <0>        -0.1567
     42 C31        -1.8990    4.9185  -12.4606 C.3       1 <0>        -0.0478
     43 H2          0.7186    2.0151   -0.1993 H         1 <0>         0.0767
     44 H3         -0.8545    1.7112   -0.9747 H         1 <0>         0.0660
     45 H4         -0.7475    1.8506    0.7966 H         1 <0>         0.0820
     46 H5          2.6855   -0.3019    0.1061 H         1 <0>         0.1446
     47 H6          4.0793   -0.7767    2.0791 H         1 <0>         0.1341
     48 H7          3.0330   -1.0391    4.2925 H         1 <0>         0.1364
     49 H8          0.5921   -0.8267    4.5336 H         1 <0>         0.1384
     50 H9         -1.9268   -0.1124   -1.3481 H         1 <0>         0.1611
     51 H10         1.4559   -2.3503   -5.5254 H         1 <0>         0.3962
     52 H11         3.0636   -2.4084   -5.0408 H         1 <0>         0.4112
     53 H12        -4.3995   -1.6260   -1.7143 H         1 <0>         0.2257
     54 H13        -2.6702    0.5201   -5.9527 H         1 <0>         0.1295
     55 H14        -4.2475    1.4226   -7.5835 H         1 <0>         0.1317
     56 H15        -7.5408    0.2292   -5.1164 H         1 <0>         0.1441
     57 H16        -8.7192    0.9249   -6.3406 H         1 <0>         0.1407
     58 H17       -10.2385    1.8569   -8.0309 H         1 <0>         0.1641
     59 H18        -5.4167    2.1042   -8.8186 H         1 <0>         0.1292
     60 H19        -7.5917    3.4824  -11.3441 H         1 <0>         0.4104
     61 H20        -5.0129    2.3362  -10.5888 H         1 <0>         0.0975
     62 H21        -5.4853    5.3528  -10.6699 H         1 <0>         0.0948
     63 H22        -5.0538    4.3934   -9.2331 H         1 <0>         0.1162
     64 H23        -3.0544    5.4992  -10.1984 H         1 <0>         0.1348
     65 H24        -2.9252    3.7284  -10.3159 H         1 <0>         0.1306
     66 H25        -3.6291    3.5475  -13.8452 H         1 <0>         0.1373
     67 H26        -3.2487    2.6295  -12.3691 H         1 <0>         0.1323
     68 H27        -5.6425    2.3940  -12.9691 H         1 <0>         0.1211
     69 H28        -5.8357    4.1627  -12.8938 H         1 <0>         0.0962
     70 H29        -1.3147    4.0735  -12.0966 H         1 <0>         0.1226
     71 H30        -1.7876    4.9984  -13.5420 H         1 <0>         0.1252
     72 H31        -1.5440    5.8354  -11.9901 H         1 <0>         0.1249
     73 H32        -3.8539    5.4987  -12.4631 H         1 <0>         0.4261
@<TRIPOS>BOND
     1    1    2 1
     2    1   43 1
     3    1   44 1
     4    1   45 1
     5    2    3 1
     6    2    4 1
     7    2   11 1
     8    4    9 ar
     9    4    5 ar
    10    5    6 ar
    11    5   46 1
    12    6    7 ar
    13    6   47 1
    14    7    8 ar
    15    7   48 1
    16    8    9 ar
    17    8   49 1
    18    9   10 1
    19   11   12 1
    20   12   16 2
    21   12   13 1
    22   13   14 2
    23   13   50 1
    24   14   15 1
    25   14   20 1
    26   15   16 1
    27   16   17 1
    28   17   18 2
    29   17   19 am
    30   19   51 1
    31   19   52 1
    32   20   24 1
    33   20   21 1
    34   21   22 2
    35   21   53 1
    36   22   23 1
    37   23   28 ar
    38   23   24 ar
    39   24   25 ar
    40   25   26 ar
    41   25   54 1
    42   26   27 ar
    43   26   55 1
    44   27   28 ar
    45   27   29 1
    46   28   56 1
    47   29   34 ar
    48   29   30 ar
    49   30   31 ar
    50   30   57 1
    51   31   32 ar
    52   31   58 1
    53   32   33 ar
    54   33   34 ar
    55   33   35 1
    56   34   59 1
    57   35   36 1
    58   35   60 1
    59   36   41 1
    60   36   37 1
    61   36   61 1
    62   37   38 1
    63   37   62 1
    64   37   63 1
    65   38   39 1
    66   38   64 1
    67   38   65 1
    68   39   40 1
    69   39   42 1
    70   39   73 1
    71   40   41 1
    72   40   66 1
    73   40   67 1
    74   41   68 1
    75   41   69 1
    76   42   70 1
    77   42   71 1
    78   42   72 1
@<TRIPOS>MOLECULE
CHEMBL1208966
   72    77     0     0     0
SMALL
USER_CHARGES

@<TRIPOS>ATOM
      1 C1         -0.0052    1.5022    0.2557 C.3       1 <0>        -0.1757
      2 C2          0.0030   -0.0065    0.0012 C.3       1 <0>         0.1180
      3 H1          0.5787   -0.5035    0.7820 H         1 <0>         0.0886
      4 C3          0.6297   -0.2862   -1.3404 C.ar      1 <0>        -0.0867
      5 C4         -0.1684   -0.4296   -2.4599 C.ar      1 <0>        -0.0765
      6 C5          0.4063   -0.6861   -3.6905 C.ar      1 <0>        -0.1124
      7 C6          1.7797   -0.7994   -3.8026 C.ar      1 <0>        -0.0995
      8 C7          2.5787   -0.6562   -2.6841 C.ar      1 <0>        -0.1101
      9 C8          2.0043   -0.3938   -1.4529 C.ar      1 <0>        -0.0265
     10 Cl1         3.0077   -0.2072   -0.0486 Cl        1 <0>        -0.0689
     11 O1         -1.3386   -0.4987    0.0122 O.3       1 <0>        -0.2580
     12 C9         -1.8684   -0.8173    1.2210 C.2       1 <0>         0.1977
     13 C10        -1.1785   -0.5658    2.3813 C.2       1 <0>        -0.2253
     14 C11        -1.7460   -0.9014    3.5808 C.2       1 <0>         0.1016
     15 S1         -3.3112   -1.5995    3.0825 S.3       1 <0>         0.1534
     16 C12        -3.1295   -1.4030    1.3173 C.2       1 <0>        -0.2694
     17 C13        -4.0297   -1.7524    0.2856 C.2       1 <0>         0.6104
     18 O2         -3.7338   -1.5436   -0.8776 O.2       1 <0>        -0.5132
     19 N1         -5.2157   -2.3165    0.5884 N.am      1 <0>        -0.8524
     20 N2         -1.2323   -0.7397    4.8642 N.pl3     1 <0>        -0.4106
     21 C14         0.0075   -1.1142    5.2923 C.2       1 <0>         0.2842
     22 N3          0.1558   -0.8136    6.5490 N.2       1 <0>        -0.4668
     23 C15        -0.9768   -0.2256    7.0158 C.ar      1 <0>         0.0455
     24 C16        -1.8815   -0.1642    5.9405 C.ar      1 <0>         0.0666
     25 C17        -3.1384    0.3990    6.1179 C.ar      1 <0>        -0.1055
     26 C18        -3.4999    0.8985    7.3370 C.ar      1 <0>        -0.0647
     27 C19        -2.6110    0.8488    8.4156 C.ar      1 <0>        -0.0746
     28 C20        -1.3527    0.2814    8.2595 C.ar      1 <0>         0.0001
     29 C21        -3.0165    1.3956    9.7326 C.ar      1 <0>         0.2770
     30 C22        -4.3184    1.8616    9.9372 C.ar      1 <0>        -0.2691
     31 C23        -4.6508    2.3625   11.1826 C.ar      1 <0>         0.1959
     32 N4         -3.7336    2.3859   12.1372 N.ar      1 <0>        -0.5775
     33 C24        -2.5066    1.9375   11.9155 C.ar      1 <0>         0.5665
     34 N5         -2.1479    1.4453   10.7401 N.ar      1 <0>        -0.5620
     35 N6         -1.5775    1.9803   12.9406 N.pl3     1 <0>        -0.7003
     36 C25        -1.9560    2.5165   14.2503 C.3       1 <0>         0.1575
     37 C26        -1.7910    4.0389   14.2475 C.3       1 <0>        -0.1620
     38 C27        -2.1115    4.5838   15.6410 C.3       1 <0>        -0.0022
     39 N7         -1.1955    3.9927   16.6240 N.4       1 <0>        -0.3868
     40 C28        -1.3987    2.5403   16.6837 C.3       1 <0>         0.0001
     41 C29        -1.0509    1.9168   15.3302 C.3       1 <0>        -0.1589
     42 C30        -1.4556    4.5768   17.9466 C.3       1 <0>        -0.0472
     43 H2          1.0180    1.8776    0.2474 H         1 <0>         0.0811
     44 H3         -0.5810    1.9992   -0.5250 H         1 <0>         0.0770
     45 H4         -0.4586    1.7045    1.2261 H         1 <0>         0.0668
     46 H5         -1.2413   -0.3416   -2.3729 H         1 <0>         0.1454
     47 H6         -0.2177   -0.7984   -4.5648 H         1 <0>         0.1342
     48 H7          2.2282   -1.0002   -4.7643 H         1 <0>         0.1360
     49 H8          3.6514   -0.7451   -2.7717 H         1 <0>         0.1378
     50 H9         -0.2002   -0.1093    2.3478 H         1 <0>         0.1604
     51 H10        -5.4513   -2.4827    1.5146 H         1 <0>         0.3970
     52 H11        -5.8336   -2.5563   -0.1198 H         1 <0>         0.4114
     53 H12         0.7565   -1.5911    4.6776 H         1 <0>         0.2251
     54 H13        -3.8312    0.4425    5.2906 H         1 <0>         0.1347
     55 H14        -4.4788    1.3353    7.4686 H         1 <0>         0.1435
     56 H15        -0.6658    0.2442    9.0921 H         1 <0>         0.1478
     57 H16        -5.0476    1.8316    9.1411 H         1 <0>         0.1520
     58 H17        -5.6477    2.7310   11.3744 H         1 <0>         0.1737
     59 H18        -0.6758    1.6552   12.7918 H         1 <0>         0.4180
     60 H19        -2.9944    2.2616   14.4623 H         1 <0>         0.1080
     61 H20        -0.7643    4.2933   13.9845 H         1 <0>         0.0883
     62 H21        -2.4733    4.4777   13.5194 H         1 <0>         0.1164
     63 H22        -1.9952    5.6676   15.6425 H         1 <0>         0.1330
     64 H23        -3.1384    4.3292   15.9030 H         1 <0>         0.1322
     65 H24        -0.7562    2.1153   17.4548 H         1 <0>         0.1364
     66 H25        -2.4409    2.3292   16.9233 H         1 <0>         0.1327
     67 H26        -1.2041    0.8385   15.3761 H         1 <0>         0.1196
     68 H27        -0.0088    2.1271   15.0897 H         1 <0>         0.0945
     69 H28        -2.4853    4.3706   18.2387 H         1 <0>         0.1227
     70 H29        -0.7759    4.1385   18.6773 H         1 <0>         0.1244
     71 H30        -1.2986    5.6546   17.9050 H         1 <0>         0.1244
     72 H31        -0.2430    4.1873   16.3541 H         1 <0>         0.4248
@<TRIPOS>BOND
     1    1    2 1
     2    1   43 1
     3    1   44 1
     4    1   45 1
     5    2    3 1
     6    2    4 1
     7    2   11 1
     8    4    9 ar
     9    4    5 ar
    10    5    6 ar
    11    5   46 1
    12    6    7 ar
    13    6   47 1
    14    7    8 ar
    15    7   48 1
    16    8    9 ar
    17    8   49 1
    18    9   10 1
    19   11   12 1
    20   12   16 2
    21   12   13 1
    22   13   14 2
    23   13   50 1
    24   14   15 1
    25   14   20 1
    26   15   16 1
    27   16   17 1
    28   17   18 2
    29   17   19 am
    30   19   51 1
    31   19   52 1
    32   20   24 1
    33   20   21 1
    34   21   22 2
    35   21   53 1
    36   22   23 1
    37   23   28 ar
    38   23   24 ar
    39   24   25 ar
    40   25   26 ar
    41   25   54 1
    42   26   27 ar
    43   26   55 1
    44   27   28 ar
    45   27   29 1
    46   28   56 1
    47   29   34 ar
    48   29   30 ar
    49   30   31 ar
    50   30   57 1
    51   31   32 ar
    52   31   58 1
    53   32   33 ar
    54   33   34 ar
    55   33   35 1
    56   35   36 1
    57   35   59 1
    58   36   41 1
    59   36   37 1
    60   36   60 1
    61   37   38 1
    62   37   61 1
    63   37   62 1
    64   38   39 1
    65   38   63 1
    66   38   64 1
    67   39   40 1
    68   39   42 1
    69   39   72 1
    70   40   41 1
    71   40   65 1
    72   40   66 1
    73   41   67 1
    74   41   68 1
    75   42   69 1
    76   42   70 1
    77   42   71 1
@<TRIPOS>MOLECULE
CHEMBL562735
   60    64     0     0     0
SMALL
USER_CHARGES

@<TRIPOS>ATOM
      1 C1          0.2924    1.2790   -0.1308 C.3       1 <0>        -0.1786
      2 C2          0.0646   -0.2292   -0.0104 C.3       1 <0>         0.1074
      3 H1          0.5180   -0.7343   -0.8632 H         1 <0>         0.0968
      4 C3          0.6932   -0.7320    1.2636 C.ar      1 <0>        -0.0419
      5 C4         -0.0724   -0.8641    2.4070 C.ar      1 <0>        -0.0708
      6 C5          0.5040   -1.3253    3.5755 C.ar      1 <0>        -0.0884
      7 C6          1.8466   -1.6547    3.6017 C.ar      1 <0>        -0.1485
      8 C7          2.6130   -1.5230    2.4593 C.ar      1 <0>        -0.0853
      9 C8          2.0352   -1.0668    1.2876 C.ar      1 <0>        -0.0288
     10 Cl1         2.9958   -0.9074   -0.1496 Cl        1 <0>        -0.0377
     11 C9          2.4744   -2.1570    4.8763 C.3       1 <0>         0.0471
     12 N1          2.3662   -3.6210    4.9316 N.4       1 <0>        -0.3871
     13 C10         0.9443   -4.0110    5.0399 C.3       1 <0>        -0.0094
     14 C11         0.9442   -5.2531    5.9656 C.3       1 <0>        -0.1812
     15 C12         2.0564   -4.8858    6.9829 C.3       1 <0>         0.0931
     16 C13         3.0834   -4.1271    6.1163 C.3       1 <0>        -0.0100
     17 O1          2.6396   -6.0648    7.5415 O.3       1 <0>        -0.5484
     18 O2         -1.3386   -0.4987    0.0122 O.3       1 <0>        -0.2666
     19 C14        -1.9649   -0.6067   -1.1879 C.2       1 <0>         0.2044
     20 C15        -1.2942   -0.3504   -2.3536 C.2       1 <0>        -0.2562
     21 C16        -1.9771   -0.4741   -3.5570 C.2       1 <0>         0.0184
     22 S1         -3.6073   -0.9651   -3.0209 S.3       1 <0>         0.1145
     23 C17        -3.3053   -0.9869   -1.2617 C.2       1 <0>        -0.2982
     24 C18        -4.1957   -1.3053   -0.2129 C.2       1 <0>         0.6167
     25 O3         -3.8142   -1.2651    0.9436 O.2       1 <0>        -0.5331
     26 N2         -5.4676   -1.6537   -0.4912 N.am      1 <0>        -0.8537
     27 C19        -1.4839   -0.2557   -4.9220 C.2       1 <0>        -0.0404
     28 C20        -0.1846    0.0268   -5.2952 C.2       1 <0>         0.1113
     29 N3         -0.1495    0.1535   -6.6166 N.2       1 <0>        -0.4839
     30 C21        -1.3665   -0.0338   -7.1169 C.2       1 <0>         0.2506
     31 N4         -2.2259   -0.2983   -6.0835 N.pl3     1 <0>        -0.3474
     32 C22        -3.5462   -0.5360   -6.3236 C.2       1 <0>         0.0484
     33 C23        -4.0301   -0.5185   -7.5848 C.2       1 <0>        -0.1214
     34 C24        -3.1747   -0.2547   -8.6657 C.2       1 <0>        -0.0861
     35 C25        -1.8553   -0.0074   -8.4368 C.2       1 <0>        -0.0781
     36 H2          1.3627    1.4846   -0.1480 H         1 <0>         0.0807
     37 H3         -0.1623    1.6427   -1.0523 H         1 <0>         0.0784
     38 H4         -0.1610    1.7842    0.7221 H         1 <0>         0.0762
     39 H5         -1.1210   -0.6066    2.3873 H         1 <0>         0.1589
     40 H6         -0.0944   -1.4280    4.4687 H         1 <0>         0.1395
     41 H7          3.6618   -1.7801    2.4799 H         1 <0>         0.1457
     42 H8          3.5254   -1.8691    4.9016 H         1 <0>         0.1414
     43 H9          1.9578   -1.7219    5.7318 H         1 <0>         0.1410
     44 H10         0.3625   -3.2047    5.4867 H         1 <0>         0.1352
     45 H11         0.5457   -4.2690    4.0587 H         1 <0>         0.1375
     46 H12        -0.0183   -5.3685    6.4641 H         1 <0>         0.1209
     47 H13         1.2050   -6.1540    5.4102 H         1 <0>         0.1077
     48 H14         1.6628   -4.2402    7.7679 H         1 <0>         0.0979
     49 H15         3.8795   -4.8042    5.8065 H         1 <0>         0.1439
     50 H16         3.5013   -3.2936    6.6809 H         1 <0>         0.1424
     51 H17         2.0161   -6.6173    8.0325 H         1 <0>         0.4051
     52 H18        -0.2548   -0.0574   -2.3379 H         1 <0>         0.1553
     53 H19        -5.7713   -1.6857   -1.4119 H         1 <0>         0.3981
     54 H20        -6.0793   -1.8724    0.2291 H         1 <0>         0.4092
     55 H21         0.6580    0.1276   -4.6272 H         1 <0>         0.1909
     56 H22        -4.2117   -0.7407   -5.4980 H         1 <0>         0.1601
     57 H23        -5.0784   -0.7085   -7.7618 H         1 <0>         0.1616
     58 H24        -3.5623   -0.2416   -9.6737 H         1 <0>         0.1541
     59 H25        -1.1877    0.1952   -9.2613 H         1 <0>         0.1621
     60 H26         2.7640   -4.0234    4.0962 H         1 <0>         0.4290
@<TRIPOS>BOND
     1    1    2 1
     2    1   36 1
     3    1   37 1
     4    1   38 1
     5    2    3 1
     6    2    4 1
     7    2   18 1
     8    4    9 ar
     9    4    5 ar
    10    5    6 ar
    11    5   39 1
    12    6    7 ar
    13    6   40 1
    14    7    8 ar
    15    7   11 1
    16    8    9 ar
    17    8   41 1
    18    9   10 1
    19   11   12 1
    20   11   42 1
    21   11   43 1
    22   12   16 1
    23   12   13 1
    24   12   60 1
    25   13   14 1
    26   13   44 1
    27   13   45 1
    28   14   15 1
    29   14   46 1
    30   14   47 1
    31   15   16 1
    32   15   17 1
    33   15   48 1
    34   16   49 1
    35   16   50 1
    36   17   51 1
    37   18   19 1
    38   19   23 2
    39   19   20 1
    40   20   21 2
    41   20   52 1
    42   21   22 1
    43   21   27 1
    44   22   23 1
    45   23   24 1
    46   24   25 2
    47   24   26 am
    48   26   53 1
    49   26   54 1
    50   27   31 1
    51   27   28 2
    52   28   29 1
    53   28   55 1
    54   29   30 2
    55   30   35 1
    56   30   31 1
    57   31   32 1
    58   32   33 2
    59   32   56 1
    60   33   34 1
    61   33   57 1
    62   34   35 2
    63   34   58 1
    64   35   59 1
@<TRIPOS>MOLECULE
CHEMBL562735__1
   61    65     0     0     0
SMALL
USER_CHARGES

@<TRIPOS>ATOM
      1 C1          0.2924    1.2790   -0.1308 C.3       1 <0>        -0.1809
      2 C2          0.0646   -0.2292   -0.0104 C.3       1 <0>         0.1103
      3 H1          0.5180   -0.7343   -0.8632 H         1 <0>         0.0939
      4 C3          0.6932   -0.7320    1.2636 C.ar      1 <0>        -0.0508
      5 C4         -0.0724   -0.8641    2.4070 C.ar      1 <0>        -0.0705
      6 C5          0.5040   -1.3253    3.5755 C.ar      1 <0>        -0.0859
      7 C6          1.8466   -1.6547    3.6017 C.ar      1 <0>        -0.1410
      8 C7          2.6130   -1.5230    2.4593 C.ar      1 <0>        -0.0838
      9 C8          2.0352   -1.0668    1.2876 C.ar      1 <0>        -0.0269
     10 Cl1         2.9958   -0.9074   -0.1496 Cl        1 <0>        -0.0434
     11 C9          2.4744   -2.1570    4.8763 C.3       1 <0>         0.0444
     12 N1          2.3662   -3.6210    4.9316 N.4       1 <0>        -0.3868
     13 C10         0.9443   -4.0110    5.0399 C.3       1 <0>        -0.0095
     14 C11         0.9442   -5.2531    5.9656 C.3       1 <0>        -0.1817
     15 C12         2.0564   -4.8858    6.9829 C.3       1 <0>         0.0933
     16 C13         3.0834   -4.1271    6.1163 C.3       1 <0>        -0.0106
     17 O1          2.6396   -6.0648    7.5415 O.3       1 <0>        -0.5476
     18 O2         -1.3386   -0.4987    0.0122 O.3       1 <0>        -0.2606
     19 C14        -1.9649   -0.6067   -1.1879 C.2       1 <0>         0.1813
     20 C15        -1.2942   -0.3504   -2.3536 C.2       1 <0>        -0.1913
     21 C16        -1.9771   -0.4741   -3.5570 C.2       1 <0>        -0.0800
     22 S1         -3.6073   -0.9651   -3.0209 S.3       1 <0>         0.1682
     23 C17        -3.3053   -0.9869   -1.2617 C.2       1 <0>        -0.2470
     24 C18        -4.1957   -1.3053   -0.2129 C.2       1 <0>         0.6070
     25 O3         -3.8142   -1.2651    0.9436 O.2       1 <0>        -0.5127
     26 N2         -5.4676   -1.6537   -0.4912 N.am      1 <0>        -0.8473
     27 C19        -1.4839   -0.2557   -4.9220 C.2       1 <0>         0.0700
     28 C20        -0.1846    0.0268   -5.2952 C.2       1 <0>         0.1141
     29 N3         -0.1495    0.1535   -6.6166 N.pl3     1 <0>        -0.4958
     30 C21        -1.3665   -0.0338   -7.1169 C.cat     1 <0>         0.3086
     31 N4         -2.2259   -0.2983   -6.0835 N.pl3     1 <0>        -0.3218
     32 C22        -3.5462   -0.5360   -6.3236 C.2       1 <0>         0.0773
     33 C23        -4.0301   -0.5185   -7.5848 C.2       1 <0>        -0.0944
     34 C24        -3.1747   -0.2547   -8.6657 C.2       1 <0>        -0.0120
     35 C25        -1.8553   -0.0074   -8.4368 C.2       1 <0>        -0.1146
     36 H2          1.3627    1.4846   -0.1480 H         1 <0>         0.0845
     37 H3         -0.1623    1.6427   -1.0523 H         1 <0>         0.0740
     38 H4         -0.1610    1.7842    0.7221 H         1 <0>         0.0815
     39 H5         -1.1210   -0.6066    2.3873 H         1 <0>         0.1587
     40 H6         -0.0944   -1.4280    4.4687 H         1 <0>         0.1424
     41 H7          3.6618   -1.7801    2.4799 H         1 <0>         0.1479
     42 H8          3.5254   -1.8691    4.9016 H         1 <0>         0.1431
     43 H9          1.9578   -1.7219    5.7318 H         1 <0>         0.1430
     44 H10         0.3625   -3.2047    5.4867 H         1 <0>         0.1351
     45 H11         0.5457   -4.2690    4.0587 H         1 <0>         0.1361
     46 H12        -0.0183   -5.3685    6.4641 H         1 <0>         0.1218
     47 H13         1.2050   -6.1540    5.4102 H         1 <0>         0.1081
     48 H14         1.6628   -4.2402    7.7679 H         1 <0>         0.0987
     49 H15         3.8795   -4.8042    5.8065 H         1 <0>         0.1450
     50 H16         3.5013   -3.2936    6.6809 H         1 <0>         0.1435
     51 H17         2.0161   -6.6173    8.0325 H         1 <0>         0.4064
     52 H18        -0.2548   -0.0574   -2.3379 H         1 <0>         0.1615
     53 H19        -5.7713   -1.6857   -1.4119 H         1 <0>         0.3982
     54 H20        -6.0793   -1.8724    0.2291 H         1 <0>         0.4165
     55 H21         0.6580    0.1276   -4.6272 H         1 <0>         0.2350
     56 H22        -4.2117   -0.7407   -5.4980 H         1 <0>         0.1892
     57 H23        -5.0784   -0.7085   -7.7618 H         1 <0>         0.1905
     58 H24        -3.5623   -0.2416   -9.6737 H         1 <0>         0.1829
     59 H25        -1.1877    0.1952   -9.2613 H         1 <0>         0.1871
     60 H26         2.7640   -4.0234    4.0962 H         1 <0>         0.4284
     61 H27         0.6439    0.3532   -7.1377 H         1 <0>         0.4696
@<TRIPOS>BOND
     1    1    2 1
     2    1   36 1
     3    1   37 1
     4    1   38 1
     5    2    3 1
     6    2    4 1
     7    2   18 1
     8    4    9 ar
     9    4    5 ar
    10    5    6 ar
    11    5   39 1
    12    6    7 ar
    13    6   40 1
    14    7    8 ar
    15    7   11 1
    16    8    9 ar
    17    8   41 1
    18    9   10 1
    19   11   12 1
    20   11   42 1
    21   11   43 1
    22   12   16 1
    23   12   13 1
    24   12   60 1
    25   13   14 1
    26   13   44 1
    27   13   45 1
    28   14   15 1
    29   14   46 1
    30   14   47 1
    31   15   16 1
    32   15   17 1
    33   15   48 1
    34   16   49 1
    35   16   50 1
    36   17   51 1
    37   18   19 1
    38   19   23 2
    39   19   20 1
    40   20   21 2
    41   20   52 1
    42   21   22 1
    43   21   27 1
    44   22   23 1
    45   23   24 1
    46   24   25 2
    47   24   26 am
    48   26   53 1
    49   26   54 1
    50   27   31 1
    51   27   28 2
    52   28   29 1
    53   28   55 1
    54   29   30 2
    55   29   61 1
    56   30   35 1
    57   30   31 1
    58   31   32 1
    59   32   33 2
    60   32   56 1
    61   33   34 1
    62   33   57 1
    63   34   35 2
    64   34   58 1
    65   35   59 1
@<TRIPOS>MOLECULE
CHEMBL562735__2
   60    64     0     0     0
SMALL
USER_CHARGES

@<TRIPOS>ATOM
      1 C1          0.2924    1.2790   -0.1308 C.3       1 <0>        -0.1786
      2 C2          0.0646   -0.2292   -0.0104 C.3       1 <0>         0.1075
      3 H1          0.5180   -0.7343   -0.8632 H         1 <0>         0.0967
      4 C3          0.6932   -0.7320    1.2636 C.ar      1 <0>        -0.0421
      5 C4         -0.0724   -0.8641    2.4070 C.ar      1 <0>        -0.0711
      6 C5          0.5040   -1.3253    3.5755 C.ar      1 <0>        -0.0878
      7 C6          1.8466   -1.6547    3.6017 C.ar      1 <0>        -0.1479
      8 C7          2.6130   -1.5230    2.4593 C.ar      1 <0>        -0.0856
      9 C8          2.0352   -1.0668    1.2876 C.ar      1 <0>        -0.0291
     10 Cl1         2.9958   -0.9074   -0.1496 Cl        1 <0>        -0.0381
     11 C9          2.4744   -2.1570    4.8763 C.3       1 <0>         0.0522
     12 N1          2.3662   -3.6210    4.9316 N.4       1 <0>        -0.3939
     13 C10         0.9541   -4.0299    5.1455 C.3       1 <0>        -0.0035
     14 C11         1.0464   -5.4546    5.7328 C.3       1 <0>        -0.1844
     15 C12         2.4472   -5.5339    6.3739 C.3       1 <0>         0.0893
     16 C13         3.0835   -4.1504    6.1199 C.3       1 <0>        -0.0013
     17 O1          2.3376   -5.7797    7.7773 O.3       1 <0>        -0.5498
     18 O2         -1.3386   -0.4987    0.0122 O.3       1 <0>        -0.2666
     19 C14        -1.9649   -0.6067   -1.1879 C.2       1 <0>         0.2043
     20 C15        -1.2942   -0.3504   -2.3536 C.2       1 <0>        -0.2560
     21 C16        -1.9771   -0.4741   -3.5570 C.2       1 <0>         0.0181
     22 S1         -3.6073   -0.9651   -3.0209 S.3       1 <0>         0.1145
     23 C17        -3.3053   -0.9869   -1.2617 C.2       1 <0>        -0.2980
     24 C18        -4.1957   -1.3053   -0.2129 C.2       1 <0>         0.6165
     25 O3         -3.8142   -1.2651    0.9436 O.2       1 <0>        -0.5329
     26 N2         -5.4676   -1.6537   -0.4912 N.am      1 <0>        -0.8537
     27 C19        -1.4839   -0.2557   -4.9220 C.2       1 <0>        -0.0402
     28 C20        -0.1846    0.0268   -5.2952 C.2       1 <0>         0.1112
     29 N3         -0.1495    0.1535   -6.6166 N.2       1 <0>        -0.4839
     30 C21        -1.3665   -0.0338   -7.1169 C.2       1 <0>         0.2505
     31 N4         -2.2259   -0.2983   -6.0835 N.pl3     1 <0>        -0.3474
     32 C22        -3.5462   -0.5360   -6.3236 C.2       1 <0>         0.0484
     33 C23        -4.0301   -0.5185   -7.5848 C.2       1 <0>        -0.1214
     34 C24        -3.1747   -0.2547   -8.6657 C.2       1 <0>        -0.0861
     35 C25        -1.8553   -0.0074   -8.4368 C.2       1 <0>        -0.0781
     36 H2          1.3627    1.4846   -0.1480 H         1 <0>         0.0807
     37 H3         -0.1623    1.6427   -1.0523 H         1 <0>         0.0784
     38 H4         -0.1610    1.7842    0.7221 H         1 <0>         0.0763
     39 H5         -1.1210   -0.6066    2.3873 H         1 <0>         0.1588
     40 H6         -0.0944   -1.4280    4.4687 H         1 <0>         0.1399
     41 H7          3.6618   -1.7801    2.4799 H         1 <0>         0.1454
     42 H8          3.5254   -1.8691    4.9016 H         1 <0>         0.1411
     43 H9          1.9578   -1.7219    5.7318 H         1 <0>         0.1409
     44 H10         0.4667   -3.3582    5.8521 H         1 <0>         0.1355
     45 H11         0.4146   -4.0434    4.1984 H         1 <0>         0.1355
     46 H12         0.2752   -5.6032    6.4887 H         1 <0>         0.1207
     47 H13         0.9498   -6.1975    4.9411 H         1 <0>         0.1055
     48 H14         3.0382   -6.3157    5.8968 H         1 <0>         0.0963
     49 H15         4.1473   -4.2547    5.9066 H         1 <0>         0.1439
     50 H16         2.9293   -3.4976    6.9791 H         1 <0>         0.1451
     51 H17         1.9040   -6.6156    7.9975 H         1 <0>         0.4045
     52 H18        -0.2548   -0.0574   -2.3379 H         1 <0>         0.1553
     53 H19        -5.7713   -1.6857   -1.4119 H         1 <0>         0.3981
     54 H20        -6.0793   -1.8724    0.2291 H         1 <0>         0.4092
     55 H21         0.6580    0.1276   -4.6272 H         1 <0>         0.1909
     56 H22        -4.2117   -0.7407   -5.4980 H         1 <0>         0.1601
     57 H23        -5.0784   -0.7085   -7.7618 H         1 <0>         0.1615
     58 H24        -3.5623   -0.2416   -9.6737 H         1 <0>         0.1540
     59 H25        -1.1877    0.1952   -9.2613 H         1 <0>         0.1620
     60 H26         2.7309   -4.0340    4.0863 H         1 <0>         0.4285
@<TRIPOS>BOND
     1    1    2 1
     2    1   36 1
     3    1   37 1
     4    1   38 1
     5    2    3 1
     6    2    4 1
     7    2   18 1
     8    4    9 ar
     9    4    5 ar
    10    5    6 ar
    11    5   39 1
    12    6    7 ar
    13    6   40 1
    14    7    8 ar
    15    7   11 1
    16    8    9 ar
    17    8   41 1
    18    9   10 1
    19   11   12 1
    20   11   42 1
    21   11   43 1
    22   12   16 1
    23   12   13 1
    24   12   60 1
    25   13   14 1
    26   13   44 1
    27   13   45 1
    28   14   15 1
    29   14   46 1
    30   14   47 1
    31   15   16 1
    32   15   17 1
    33   15   48 1
    34   16   49 1
    35   16   50 1
    36   17   51 1
    37   18   19 1
    38   19   23 2
    39   19   20 1
    40   20   21 2
    41   20   52 1
    42   21   22 1
    43   21   27 1
    44   22   23 1
    45   23   24 1
    46   24   25 2
    47   24   26 am
    48   26   53 1
    49   26   54 1
    50   27   31 1
    51   27   28 2
    52   28   29 1
    53   28   55 1
    54   29   30 2
    55   30   35 1
    56   30   31 1
    57   31   32 1
    58   32   33 2
    59   32   56 1
    60   33   34 1
    61   33   57 1
    62   34   35 2
    63   34   58 1
    64   35   59 1
@<TRIPOS>MOLECULE
CHEMBL562735__3
   61    65     0     0     0
SMALL
USER_CHARGES

@<TRIPOS>ATOM
      1 C1          0.2924    1.2790   -0.1308 C.3       1 <0>        -0.1809
      2 C2          0.0646   -0.2292   -0.0104 C.3       1 <0>         0.1105
      3 H1          0.5180   -0.7343   -0.8632 H         1 <0>         0.0938
      4 C3          0.6932   -0.7320    1.2636 C.ar      1 <0>        -0.0510
      5 C4         -0.0724   -0.8641    2.4070 C.ar      1 <0>        -0.0708
      6 C5          0.5040   -1.3253    3.5755 C.ar      1 <0>        -0.0853
      7 C6          1.8466   -1.6547    3.6017 C.ar      1 <0>        -0.1404
      8 C7          2.6130   -1.5230    2.4593 C.ar      1 <0>        -0.0841
      9 C8          2.0352   -1.0668    1.2876 C.ar      1 <0>        -0.0272
     10 Cl1         2.9958   -0.9074   -0.1496 Cl        1 <0>        -0.0437
     11 C9          2.4744   -2.1570    4.8763 C.3       1 <0>         0.0494
     12 N1          2.3662   -3.6210    4.9316 N.4       1 <0>        -0.3939
     13 C10         0.9541   -4.0299    5.1455 C.3       1 <0>        -0.0035
     14 C11         1.0464   -5.4546    5.7328 C.3       1 <0>        -0.1848
     15 C12         2.4472   -5.5339    6.3739 C.3       1 <0>         0.0895
     16 C13         3.0835   -4.1504    6.1199 C.3       1 <0>        -0.0017
     17 O1          2.3376   -5.7797    7.7773 O.3       1 <0>        -0.5488
     18 O2         -1.3386   -0.4987    0.0122 O.3       1 <0>        -0.2606
     19 C14        -1.9649   -0.6067   -1.1879 C.2       1 <0>         0.1812
     20 C15        -1.2942   -0.3504   -2.3536 C.2       1 <0>        -0.1912
     21 C16        -1.9771   -0.4741   -3.5570 C.2       1 <0>        -0.0802
     22 S1         -3.6073   -0.9651   -3.0209 S.3       1 <0>         0.1681
     23 C17        -3.3053   -0.9869   -1.2617 C.2       1 <0>        -0.2468
     24 C18        -4.1957   -1.3053   -0.2129 C.2       1 <0>         0.6068
     25 O3         -3.8142   -1.2651    0.9436 O.2       1 <0>        -0.5124
     26 N2         -5.4676   -1.6537   -0.4912 N.am      1 <0>        -0.8474
     27 C19        -1.4839   -0.2557   -4.9220 C.2       1 <0>         0.0702
     28 C20        -0.1846    0.0268   -5.2952 C.2       1 <0>         0.1140
     29 N3         -0.1495    0.1535   -6.6166 N.pl3     1 <0>        -0.4958
     30 C21        -1.3665   -0.0338   -7.1169 C.cat     1 <0>         0.3085
     31 N4         -2.2259   -0.2983   -6.0835 N.pl3     1 <0>        -0.3218
     32 C22        -3.5462   -0.5360   -6.3236 C.2       1 <0>         0.0774
     33 C23        -4.0301   -0.5185   -7.5848 C.2       1 <0>        -0.0945
     34 C24        -3.1747   -0.2547   -8.6657 C.2       1 <0>        -0.0120
     35 C25        -1.8553   -0.0074   -8.4368 C.2       1 <0>        -0.1147
     36 H2          1.3627    1.4846   -0.1480 H         1 <0>         0.0845
     37 H3         -0.1623    1.6427   -1.0523 H         1 <0>         0.0740
     38 H4         -0.1610    1.7842    0.7221 H         1 <0>         0.0815
     39 H5         -1.1210   -0.6066    2.3873 H         1 <0>         0.1586
     40 H6         -0.0944   -1.4280    4.4687 H         1 <0>         0.1428
     41 H7          3.6618   -1.7801    2.4799 H         1 <0>         0.1477
     42 H8          3.5254   -1.8691    4.9016 H         1 <0>         0.1428
     43 H9          1.9578   -1.7219    5.7318 H         1 <0>         0.1429
     44 H10         0.4667   -3.3582    5.8521 H         1 <0>         0.1361
     45 H11         0.4146   -4.0434    4.1984 H         1 <0>         0.1338
     46 H12         0.2752   -5.6032    6.4887 H         1 <0>         0.1217
     47 H13         0.9498   -6.1975    4.9411 H         1 <0>         0.1054
     48 H14         3.0382   -6.3157    5.8968 H         1 <0>         0.0968
     49 H15         4.1473   -4.2547    5.9066 H         1 <0>         0.1449
     50 H16         2.9293   -3.4976    6.9791 H         1 <0>         0.1463
     51 H17         1.9040   -6.6156    7.9975 H         1 <0>         0.4058
     52 H18        -0.2548   -0.0574   -2.3379 H         1 <0>         0.1615
     53 H19        -5.7713   -1.6857   -1.4119 H         1 <0>         0.3982
     54 H20        -6.0793   -1.8724    0.2291 H         1 <0>         0.4165
     55 H21         0.6580    0.1276   -4.6272 H         1 <0>         0.2350
     56 H22        -4.2117   -0.7407   -5.4980 H         1 <0>         0.1892
     57 H23        -5.0784   -0.7085   -7.7618 H         1 <0>         0.1905
     58 H24        -3.5623   -0.2416   -9.6737 H         1 <0>         0.1829
     59 H25        -1.1877    0.1952   -9.2613 H         1 <0>         0.1871
     60 H26         2.7309   -4.0340    4.0863 H         1 <0>         0.4278
     61 H27         0.6439    0.3532   -7.1377 H         1 <0>         0.4696
@<TRIPOS>BOND
     1    1    2 1
     2    1   36 1
     3    1   37 1
     4    1   38 1
     5    2    3 1
     6    2    4 1
     7    2   18 1
     8    4    9 ar
     9    4    5 ar
    10    5    6 ar
    11    5   39 1
    12    6    7 ar
    13    6   40 1
    14    7    8 ar
    15    7   11 1
    16    8    9 ar
    17    8   41 1
    18    9   10 1
    19   11   12 1
    20   11   42 1
    21   11   43 1
    22   12   16 1
    23   12   13 1
    24   12   60 1
    25   13   14 1
    26   13   44 1
    27   13   45 1
    28   14   15 1
    29   14   46 1
    30   14   47 1
    31   15   16 1
    32   15   17 1
    33   15   48 1
    34   16   49 1
    35   16   50 1
    36   17   51 1
    37   18   19 1
    38   19   23 2
    39   19   20 1
    40   20   21 2
    41   20   52 1
    42   21   22 1
    43   21   27 1
    44   22   23 1
    45   23   24 1
    46   24   25 2
    47   24   26 am
    48   26   53 1
    49   26   54 1
    50   27   31 1
    51   27   28 2
    52   28   29 1
    53   28   55 1
    54   29   30 2
    55   29   61 1
    56   30   35 1
    57   30   31 1
    58   31   32 1
    59   32   33 2
    60   32   56 1
    61   33   34 1
    62   33   57 1
    63   34   35 2
    64   34   58 1
    65   35   59 1
@<TRIPOS>MOLECULE
CHEMBL563989
   68    72     0     0     0
SMALL
USER_CHARGES

@<TRIPOS>ATOM
      1 C1          0.2923    1.2791   -0.1302 C.3       1 <0>        -0.1779
      2 C2          0.0646   -0.2291   -0.0104 C.3       1 <0>         0.1110
      3 H1          0.5179   -0.7339   -0.8635 H         1 <0>         0.0913
      4 C3          0.6933   -0.7325    1.2634 C.ar      1 <0>        -0.0454
      5 C4         -0.0724   -0.8650    2.4068 C.ar      1 <0>        -0.0791
      6 C5          0.5042   -1.3266    3.5750 C.ar      1 <0>        -0.0977
      7 C6          1.8467   -1.6563    3.6000 C.ar      1 <0>        -0.1566
      8 C7          2.6120   -1.5247    2.4566 C.ar      1 <0>        -0.0992
      9 C8          2.0342   -1.0670    1.2870 C.ar      1 <0>        -0.0294
     10 C9          2.8674   -0.9284    0.0389 C.3       1 <0>        -0.1384
     11 C10         4.2861   -1.5007    0.0695 C.3       1 <0>        -0.1698
     12 C11         4.0714    0.0140    0.0943 C.3       1 <0>        -0.1596
     13 C12         2.4756   -2.1587    4.8740 C.3       1 <0>         0.0381
     14 N1          2.3673   -3.6227    4.9294 N.4       1 <0>        -0.5036
     15 C13         2.9803   -4.1124    6.1713 C.3       1 <0>         0.0544
     16 C14         2.2564   -3.5015    7.3728 C.3       1 <0>        -0.1789
     17 C15         2.8675   -5.6371    6.2290 C.3       1 <0>        -0.1772
     18 C16         4.4557   -3.7086    6.2054 C.3       1 <0>        -0.1784
     19 O1         -1.3386   -0.4987    0.0122 O.3       1 <0>        -0.2671
     20 C17        -1.9649   -0.6067   -1.1879 C.2       1 <0>         0.2043
     21 C18        -1.2942   -0.3504   -2.3536 C.2       1 <0>        -0.2549
     22 C19        -1.9771   -0.4741   -3.5570 C.2       1 <0>         0.0159
     23 S1         -3.6073   -0.9651   -3.0209 S.3       1 <0>         0.1128
     24 C20        -3.3053   -0.9869   -1.2617 C.2       1 <0>        -0.2979
     25 C21        -4.1957   -1.3053   -0.2129 C.2       1 <0>         0.6156
     26 O2         -3.8142   -1.2651    0.9436 O.2       1 <0>        -0.5313
     27 N2         -5.4676   -1.6537   -0.4912 N.am      1 <0>        -0.8541
     28 C22        -1.4839   -0.2557   -4.9220 C.2       1 <0>        -0.0390
     29 C23        -0.1846    0.0268   -5.2952 C.2       1 <0>         0.1097
     30 N3         -0.1495    0.1535   -6.6166 N.2       1 <0>        -0.4841
     31 C24        -1.3665   -0.0338   -7.1169 C.2       1 <0>         0.2500
     32 N4         -2.2259   -0.2983   -6.0835 N.pl3     1 <0>        -0.3474
     33 C25        -3.5462   -0.5360   -6.3236 C.2       1 <0>         0.0485
     34 C26        -4.0301   -0.5185   -7.5848 C.2       1 <0>        -0.1215
     35 C27        -3.1747   -0.2547   -8.6657 C.2       1 <0>        -0.0862
     36 C28        -1.8553   -0.0074   -8.4368 C.2       1 <0>        -0.0783
     37 H2          1.3626    1.4847   -0.1474 H         1 <0>         0.0810
     38 H3         -0.1624    1.6431   -1.0515 H         1 <0>         0.0742
     39 H4         -0.1610    1.7839    0.7229 H         1 <0>         0.0742
     40 H5         -1.1211   -0.6075    2.3873 H         1 <0>         0.1498
     41 H6         -0.0938   -1.4295    4.4685 H         1 <0>         0.1333
     42 H7          3.6607   -1.7819    2.4762 H         1 <0>         0.1338
     43 H8          2.3196   -0.9903   -0.9014 H         1 <0>         0.1184
     44 H9          4.6167   -1.9773    0.9923 H         1 <0>         0.0954
     45 H10         4.6718   -1.9393   -0.8508 H         1 <0>         0.1054
     46 H11         4.3159    0.5719   -0.8096 H         1 <0>         0.1064
     47 H12         4.2608    0.5338    1.0335 H         1 <0>         0.0990
     48 H13         3.5267   -1.8710    4.8983 H         1 <0>         0.1387
     49 H14         1.9599   -1.7235    5.7300 H         1 <0>         0.1403
     50 H15         1.3943   -3.8890    4.9069 H         1 <0>         0.4266
     51 H16         1.2054   -3.7892    7.3485 H         1 <0>         0.0826
     52 H17         2.7113   -3.8649    8.2943 H         1 <0>         0.1056
     53 H18         2.3369   -2.4153    7.3317 H         1 <0>         0.0826
     54 H19         3.3832   -6.0723    5.3730 H         1 <0>         0.0816
     55 H20         3.3224   -6.0005    7.1505 H         1 <0>         0.1064
     56 H21         1.8164   -5.9248    6.2047 H         1 <0>         0.0821
     57 H22         4.5361   -2.6223    6.1643 H         1 <0>         0.0824
     58 H23         4.9106   -4.0720    7.1269 H         1 <0>         0.1057
     59 H24         4.9714   -4.1438    5.3494 H         1 <0>         0.0818
     60 H25        -0.2548   -0.0574   -2.3379 H         1 <0>         0.1544
     61 H26        -5.7713   -1.6857   -1.4119 H         1 <0>         0.3977
     62 H27        -6.0793   -1.8724    0.2291 H         1 <0>         0.4091
     63 H28         0.6580    0.1276   -4.6272 H         1 <0>         0.1905
     64 H29        -4.2117   -0.7407   -5.4980 H         1 <0>         0.1602
     65 H30        -5.0784   -0.7085   -7.7618 H         1 <0>         0.1615
     66 H31        -3.5623   -0.2416   -9.6737 H         1 <0>         0.1540
     67 H32        -1.1877    0.1952   -9.2613 H         1 <0>         0.1619
     68 H33         2.8447   -4.0255    4.1370 H         1 <0>         0.4252
@<TRIPOS>BOND
     1    1    2 1
     2    1   37 1
     3    1   38 1
     4    1   39 1
     5    2    3 1
     6    2    4 1
     7    2   19 1
     8    4    9 ar
     9    4    5 ar
    10    5    6 ar
    11    5   40 1
    12    6    7 ar
    13    6   41 1
    14    7    8 ar
    15    7   13 1
    16    8    9 ar
    17    8   42 1
    18    9   10 1
    19   10   12 1
    20   10   11 1
    21   10   43 1
    22   11   12 1
    23   11   44 1
    24   11   45 1
    25   12   46 1
    26   12   47 1
    27   13   14 1
    28   13   48 1
    29   13   49 1
    30   14   15 1
    31   14   50 1
    32   14   68 1
    33   15   16 1
    34   15   17 1
    35   15   18 1
    36   16   51 1
    37   16   52 1
    38   16   53 1
    39   17   54 1
    40   17   55 1
    41   17   56 1
    42   18   57 1
    43   18   58 1
    44   18   59 1
    45   19   20 1
    46   20   24 2
    47   20   21 1
    48   21   22 2
    49   21   60 1
    50   22   23 1
    51   22   28 1
    52   23   24 1
    53   24   25 1
    54   25   26 2
    55   25   27 am
    56   27   61 1
    57   27   62 1
    58   28   32 1
    59   28   29 2
    60   29   30 1
    61   29   63 1
    62   30   31 2
    63   31   36 1
    64   31   32 1
    65   32   33 1
    66   33   34 2
    67   33   64 1
    68   34   35 1
    69   34   65 1
    70   35   36 2
    71   35   66 1
    72   36   67 1
@<TRIPOS>MOLECULE
CHEMBL563989__1
   69    73     0     0     0
SMALL
USER_CHARGES

@<TRIPOS>ATOM
      1 C1          0.2923    1.2791   -0.1302 C.3       1 <0>        -0.1801
      2 C2          0.0646   -0.2291   -0.0104 C.3       1 <0>         0.1139
      3 H1          0.5179   -0.7339   -0.8635 H         1 <0>         0.0887
      4 C3          0.6933   -0.7325    1.2634 C.ar      1 <0>        -0.0545
      5 C4         -0.0724   -0.8650    2.4068 C.ar      1 <0>        -0.0787
      6 C5          0.5042   -1.3266    3.5750 C.ar      1 <0>        -0.0957
      7 C6          1.8467   -1.6563    3.6000 C.ar      1 <0>        -0.1492
      8 C7          2.6120   -1.5247    2.4566 C.ar      1 <0>        -0.0983
      9 C8          2.0342   -1.0670    1.2870 C.ar      1 <0>        -0.0304
     10 C9          2.8674   -0.9284    0.0389 C.3       1 <0>        -0.1381
     11 C10         4.2861   -1.5007    0.0695 C.3       1 <0>        -0.1689
     12 C11         4.0714    0.0140    0.0943 C.3       1 <0>        -0.1598
     13 C12         2.4756   -2.1587    4.8740 C.3       1 <0>         0.0352
     14 N1          2.3673   -3.6227    4.9294 N.4       1 <0>        -0.5032
     15 C13         2.9803   -4.1124    6.1713 C.3       1 <0>         0.0545
     16 C14         2.2564   -3.5015    7.3728 C.3       1 <0>        -0.1795
     17 C15         2.8675   -5.6371    6.2290 C.3       1 <0>        -0.1775
     18 C16         4.4557   -3.7086    6.2054 C.3       1 <0>        -0.1788
     19 O1         -1.3386   -0.4987    0.0122 O.3       1 <0>        -0.2612
     20 C17        -1.9649   -0.6067   -1.1879 C.2       1 <0>         0.1813
     21 C18        -1.2942   -0.3504   -2.3536 C.2       1 <0>        -0.1901
     22 C19        -1.9771   -0.4741   -3.5570 C.2       1 <0>        -0.0827
     23 S1         -3.6073   -0.9651   -3.0209 S.3       1 <0>         0.1661
     24 C20        -3.3053   -0.9869   -1.2617 C.2       1 <0>        -0.2468
     25 C21        -4.1957   -1.3053   -0.2129 C.2       1 <0>         0.6059
     26 O2         -3.8142   -1.2651    0.9436 O.2       1 <0>        -0.5108
     27 N2         -5.4676   -1.6537   -0.4912 N.am      1 <0>        -0.8478
     28 C22        -1.4839   -0.2557   -4.9220 C.2       1 <0>         0.0718
     29 C23        -0.1846    0.0268   -5.2952 C.2       1 <0>         0.1122
     30 N3         -0.1495    0.1535   -6.6166 N.pl3     1 <0>        -0.4960
     31 C24        -1.3665   -0.0338   -7.1169 C.cat     1 <0>         0.3084
     32 N4         -2.2259   -0.2983   -6.0835 N.pl3     1 <0>        -0.3220
     33 C25        -3.5462   -0.5360   -6.3236 C.2       1 <0>         0.0776
     34 C26        -4.0301   -0.5185   -7.5848 C.2       1 <0>        -0.0947
     35 C27        -3.1747   -0.2547   -8.6657 C.2       1 <0>        -0.0119
     36 C28        -1.8553   -0.0074   -8.4368 C.2       1 <0>        -0.1151
     37 H2          1.3626    1.4847   -0.1474 H         1 <0>         0.0848
     38 H3         -0.1624    1.6431   -1.0515 H         1 <0>         0.0696
     39 H4         -0.1610    1.7839    0.7229 H         1 <0>         0.0793
     40 H5         -1.1211   -0.6075    2.3873 H         1 <0>         0.1493
     41 H6         -0.0938   -1.4295    4.4685 H         1 <0>         0.1360
     42 H7          3.6607   -1.7819    2.4762 H         1 <0>         0.1356
     43 H8          2.3196   -0.9903   -0.9014 H         1 <0>         0.1136
     44 H9          4.6167   -1.9773    0.9923 H         1 <0>         0.0979
     45 H10         4.6718   -1.9393   -0.8508 H         1 <0>         0.1052
     46 H11         4.3159    0.5719   -0.8096 H         1 <0>         0.1050
     47 H12         4.2608    0.5338    1.0335 H         1 <0>         0.1012
     48 H13         3.5267   -1.8710    4.8983 H         1 <0>         0.1404
     49 H14         1.9599   -1.7235    5.7300 H         1 <0>         0.1423
     50 H15         1.3943   -3.8890    4.9069 H         1 <0>         0.4263
     51 H16         1.2054   -3.7892    7.3485 H         1 <0>         0.0829
     52 H17         2.7113   -3.8649    8.2943 H         1 <0>         0.1074
     53 H18         2.3369   -2.4153    7.3317 H         1 <0>         0.0825
     54 H19         3.3832   -6.0723    5.3730 H         1 <0>         0.0815
     55 H20         3.3224   -6.0005    7.1505 H         1 <0>         0.1081
     56 H21         1.8164   -5.9248    6.2047 H         1 <0>         0.0823
     57 H22         4.5361   -2.6223    6.1643 H         1 <0>         0.0821
     58 H23         4.9106   -4.0720    7.1269 H         1 <0>         0.1074
     59 H24         4.9714   -4.1438    5.3494 H         1 <0>         0.0817
     60 H25        -0.2548   -0.0574   -2.3379 H         1 <0>         0.1608
     61 H26        -5.7713   -1.6857   -1.4119 H         1 <0>         0.3978
     62 H27        -6.0793   -1.8724    0.2291 H         1 <0>         0.4164
     63 H28         0.6580    0.1276   -4.6272 H         1 <0>         0.2347
     64 H29        -4.2117   -0.7407   -5.4980 H         1 <0>         0.1893
     65 H30        -5.0784   -0.7085   -7.7618 H         1 <0>         0.1905
     66 H31        -3.5623   -0.2416   -9.6737 H         1 <0>         0.1828
     67 H32        -1.1877    0.1952   -9.2613 H         1 <0>         0.1870
     68 H33         2.8447   -4.0255    4.1370 H         1 <0>         0.4246
     69 H34         0.6439    0.3532   -7.1377 H         1 <0>         0.4694
@<TRIPOS>BOND
     1    1    2 1
     2    1   37 1
     3    1   38 1
     4    1   39 1
     5    2    3 1
     6    2    4 1
     7    2   19 1
     8    4    9 ar
     9    4    5 ar
    10    5    6 ar
    11    5   40 1
    12    6    7 ar
    13    6   41 1
    14    7    8 ar
    15    7   13 1
    16    8    9 ar
    17    8   42 1
    18    9   10 1
    19   10   12 1
    20   10   11 1
    21   10   43 1
    22   11   12 1
    23   11   44 1
    24   11   45 1
    25   12   46 1
    26   12   47 1
    27   13   14 1
    28   13   48 1
    29   13   49 1
    30   14   15 1
    31   14   50 1
    32   14   68 1
    33   15   16 1
    34   15   17 1
    35   15   18 1
    36   16   51 1
    37   16   52 1
    38   16   53 1
    39   17   54 1
    40   17   55 1
    41   17   56 1
    42   18   57 1
    43   18   58 1
    44   18   59 1
    45   19   20 1
    46   20   24 2
    47   20   21 1
    48   21   22 2
    49   21   60 1
    50   22   23 1
    51   22   28 1
    52   23   24 1
    53   24   25 1
    54   25   26 2
    55   25   27 am
    56   27   61 1
    57   27   62 1
    58   28   32 1
    59   28   29 2
    60   29   30 1
    61   29   63 1
    62   30   31 2
    63   30   69 1
    64   31   36 1
    65   31   32 1
    66   32   33 1
    67   33   34 2
    68   33   64 1
    69   34   35 1
    70   34   65 1
    71   35   36 2
    72   35   66 1
    73   36   67 1
@<TRIPOS>MOLECULE
CHEMBL476124
   24    25     0     0     0
SMALL
USER_CHARGES

@<TRIPOS>ATOM
      1 C1         -0.0171    1.4135    0.0098 C.ar      1 <0>         0.0794
      2 C2          1.1398    2.1248    0.0026 C.ar      1 <0>        -0.1829
      3 C3          2.3815    1.5015   -0.0126 C.ar      1 <0>         0.0565
      4 C4          2.4477    0.1219   -0.0206 C.ar      1 <0>        -0.0056
      5 C5          1.2843   -0.6102   -0.0134 C.ar      1 <0>        -0.0768
      6 C6          0.0021   -0.0041    0.0020 C.ar      1 <0>         0.0412
      7 N1         -1.0382   -0.8455    0.0070 N.pl3     1 <0>        -0.1048
      8 O1         -2.3471   -0.3057    0.0223 O.3       1 <0>        -0.4527
      9 C7         -0.8960   -2.1531   -0.0022 C.2       1 <0>         0.0158
     10 S1          0.8819   -2.3405   -0.0188 S.3       1 <0>         0.2814
     11 C8         -1.9364   -3.1971    0.0018 C.2       1 <0>         0.6058
     12 O2         -3.1115   -2.8843    0.0152 O.2       1 <0>        -0.4536
     13 N2         -1.5855   -4.4983   -0.0094 N.am      1 <0>        -0.8299
     14 N3          3.7602   -0.5624   -0.0372 N.pl3     1 <0>         0.0336
     15 O3          4.7802    0.0865   -0.0439 O.2       1 <0>        -0.1150
     16 O4          3.8121   -1.7703   -0.0441 O.3       1 <0>        -0.1414
     17 C9          1.0751    3.6304    0.0107 C.3       1 <0>         0.5210
     18 F1          1.0673    4.0897    1.3322 F         1 <0>        -0.1608
     19 F2          2.1900    4.1487   -0.6566 F         1 <0>        -0.1622
     20 F3         -0.0923    4.0504   -0.6358 F         1 <0>        -0.1613
     21 H1         -0.9633    1.9340    0.0262 H         1 <0>         0.1864
     22 H2          3.2867    2.0905   -0.0184 H         1 <0>         0.1944
     23 H3         -0.6482   -4.7478   -0.0201 H         1 <0>         0.4045
     24 H4         -2.2702   -5.1853   -0.0068 H         1 <0>         0.4269
@<TRIPOS>BOND
     1    1    6 ar
     2    1    2 ar
     3    1   21 1
     4    2    3 ar
     5    2   17 1
     6    3    4 ar
     7    3   22 1
     8    4    5 ar
     9    4   14 1
    10    5   10 1
    11    5    6 ar
    12    6    7 1
    13    7    8 1
    14    7    9 2
    15    9   10 1
    16    9   11 1
    17   11   12 2
    18   11   13 am
    19   13   23 1
    20   13   24 1
    21   14   15 2
    22   14   16 1
    23   17   18 1
    24   17   19 1
    25   17   20 1
@<TRIPOS>MOLECULE
CHEMBL503480
   44    45     0     0     0
SMALL
USER_CHARGES

@<TRIPOS>ATOM
      1 C1          0.9745   -1.0890   -0.2579 C.3       1 <0>        -0.1675
      2 C2         -0.0169    0.0458    0.0069 C.3       1 <0>         0.0786
      3 N1         -1.3807   -0.4891    0.0146 N.am      1 <0>        -0.5418
      4 C3         -1.9558   -0.8164    1.1623 C.2       1 <0>         0.5605
      5 O1         -1.3876   -0.6890    2.2323 O.2       1 <0>        -0.5095
      6 C4         -3.2823   -1.3266    1.0636 C.2       1 <0>        -0.4412
      7 C5         -4.1198   -1.7413    2.0477 C.2       1 <0>         0.3243
      8 N2         -3.7149   -1.6985    3.3538 N.pl3     1 <0>        -0.6148
      9 C6         -4.5771   -2.1254    4.3667 C.ar      1 <0>         0.1446
     10 C7         -5.8442   -2.5992    4.0490 C.ar      1 <0>        -0.1685
     11 C8         -6.6937   -3.0203    5.0527 C.ar      1 <0>        -0.0768
     12 C9         -6.2848   -2.9709    6.3731 C.ar      1 <0>        -0.1383
     13 C10        -5.0249   -2.4996    6.6929 C.ar      1 <0>        -0.0474
     14 C11        -4.1676   -2.0825    5.6935 C.ar      1 <0>        -0.1496
     15 C12        -4.5840   -2.4472    8.1330 C.3       1 <0>        -0.1205
     16 S1         -3.5481   -1.2734   -0.7000 S.3       1 <0>         0.2819
     17 C13        -2.0591   -0.6440   -1.1619 C.2       1 <0>         0.2094
     18 C14        -1.6142   -0.3482   -2.4572 C.2       1 <0>        -0.1908
     19 C15        -0.2578    0.0570   -2.6733 C.1       1 <0>         0.2766
     20 N3          0.8182    0.3785   -2.8448 N.1       1 <0>        -0.4201
     21 C16        -2.5055   -0.4500   -3.5522 C.2       1 <0>         0.5386
     22 O2         -3.6584   -0.7945   -3.3685 O.2       1 <0>        -0.5130
     23 O3         -2.0769   -0.1652   -4.8000 O.3       1 <0>        -0.3468
     24 C17        -3.0301   -0.2891   -5.8574 C.3       1 <0>         0.0641
     25 C18        -2.3659    0.0721   -7.1876 C.3       1 <0>        -0.1541
     26 H1          1.9893   -0.6911   -0.2637 H         1 <0>         0.0824
     27 H2          0.8836   -1.8412    0.5257 H         1 <0>         0.0639
     28 H3          0.7570   -1.5434   -1.2246 H         1 <0>         0.0627
     29 H4          0.2007    0.5001    0.9735 H         1 <0>         0.1066
     30 H5          0.0740    0.7979   -0.7768 H         1 <0>         0.0976
     31 H6         -5.1060   -2.1052    1.7997 H         1 <0>         0.1820
     32 H7         -2.8292   -1.3716    3.5765 H         1 <0>         0.4305
     33 H8         -6.1642   -2.6377    3.0183 H         1 <0>         0.1305
     34 H9         -7.6788   -3.3883    4.8065 H         1 <0>         0.1338
     35 H10        -6.9514   -3.3009    7.1562 H         1 <0>         0.1291
     36 H11        -3.1817   -1.7194    5.9435 H         1 <0>         0.1302
     37 H12        -4.1009   -3.3872    8.3995 H         1 <0>         0.0766
     38 H13        -3.8802   -1.6259    8.2679 H         1 <0>         0.0699
     39 H14        -5.4521   -2.2905    8.7733 H         1 <0>         0.0726
     40 H15        -3.3940   -1.3157   -5.9000 H         1 <0>         0.0704
     41 H16        -3.8663    0.3855   -5.6738 H         1 <0>         0.0702
     42 H17        -1.5297   -0.6025   -7.3712 H         1 <0>         0.0662
     43 H18        -3.0930   -0.0224   -7.9942 H         1 <0>         0.0806
     44 H19        -2.0020    1.0987   -7.1450 H         1 <0>         0.0660
@<TRIPOS>BOND
     1    1    2 1
     2    1   26 1
     3    1   27 1
     4    1   28 1
     5    2    3 1
     6    2   29 1
     7    2   30 1
     8    3   17 1
     9    3    4 am
    10    4    5 2
    11    4    6 1
    12    6    7 2
    13    6   16 1
    14    7    8 1
    15    7   31 1
    16    8    9 1
    17    8   32 1
    18    9   14 ar
    19    9   10 ar
    20   10   11 ar
    21   10   33 1
    22   11   12 ar
    23   11   34 1
    24   12   13 ar
    25   12   35 1
    26   13   14 ar
    27   13   15 1
    28   14   36 1
    29   15   37 1
    30   15   38 1
    31   15   39 1
    32   16   17 1
    33   17   18 2
    34   18   19 1
    35   18   21 1
    36   19   20 3
    37   21   22 2
    38   21   23 1
    39   23   24 1
    40   24   25 1
    41   24   40 1
    42   24   41 1
    43   25   42 1
    44   25   43 1
    45   25   44 1
@<TRIPOS>MOLECULE
CHEMBL503480__1
   44    45     0     0     0
SMALL
USER_CHARGES

@<TRIPOS>ATOM
      1 C1          0.9745   -1.0890   -0.2579 C.3       1 <0>        -0.1682
      2 C2         -0.0169    0.0458    0.0069 C.3       1 <0>         0.0791
      3 N1         -1.3807   -0.4891    0.0146 N.am      1 <0>        -0.5432
      4 C3         -1.9558   -0.8164    1.1623 C.2       1 <0>         0.5686
      5 O1         -1.3876   -0.6890    2.2323 O.2       1 <0>        -0.4909
      6 C4         -3.2823   -1.3266    1.0636 C.2       1 <0>        -0.4271
      7 C5         -4.1198   -1.7413    2.0477 C.2       1 <0>         0.3250
      8 N2         -5.3690   -2.2023    1.7336 N.pl3     1 <0>        -0.6265
      9 C6         -6.2312   -2.6292    2.7466 C.ar      1 <0>         0.1470
     10 C7         -5.8237   -2.5810    4.0741 C.ar      1 <0>        -0.1669
     11 C8         -6.6783   -3.0038    5.0728 C.ar      1 <0>        -0.0764
     12 C9         -7.9388   -3.4749    4.7529 C.ar      1 <0>        -0.1379
     13 C10        -8.3475   -3.5247    3.4329 C.ar      1 <0>        -0.0473
     14 C11        -7.5000   -3.0976    2.4294 C.ar      1 <0>        -0.1509
     15 C12        -9.7216   -4.0392    3.0893 C.3       1 <0>        -0.1203
     16 S1         -3.5481   -1.2734   -0.7000 S.3       1 <0>         0.2366
     17 C13        -2.0591   -0.6440   -1.1619 C.2       1 <0>         0.2209
     18 C14        -1.6142   -0.3482   -2.4572 C.2       1 <0>        -0.1877
     19 C15        -0.2578    0.0570   -2.6733 C.1       1 <0>         0.2757
     20 N3          0.8182    0.3785   -2.8448 N.1       1 <0>        -0.4169
     21 C16        -2.5055   -0.4500   -3.5522 C.2       1 <0>         0.5386
     22 O2         -3.6584   -0.7945   -3.3685 O.2       1 <0>        -0.5131
     23 O3         -2.0769   -0.1652   -4.8000 O.3       1 <0>        -0.3461
     24 C17        -3.0301   -0.2891   -5.8574 C.3       1 <0>         0.0641
     25 C18        -2.3659    0.0721   -7.1876 C.3       1 <0>        -0.1541
     26 H1          1.9893   -0.6911   -0.2637 H         1 <0>         0.0830
     27 H2          0.8836   -1.8412    0.5257 H         1 <0>         0.0653
     28 H3          0.7570   -1.5434   -1.2246 H         1 <0>         0.0619
     29 H4          0.2007    0.5001    0.9735 H         1 <0>         0.1085
     30 H5          0.0740    0.7979   -0.7768 H         1 <0>         0.0973
     31 H6         -3.8002   -1.7075    3.0787 H         1 <0>         0.1855
     32 H7         -5.6561   -2.2327    0.8075 H         1 <0>         0.4186
     33 H8         -4.8394   -2.2136    4.3245 H         1 <0>         0.1307
     34 H9         -6.3621   -2.9669    6.1048 H         1 <0>         0.1333
     35 H10        -8.6053   -3.8050    5.5360 H         1 <0>         0.1290
     36 H11        -7.8217   -3.1318    1.3990 H         1 <0>         0.1315
     37 H12       -10.4298   -3.2106    3.0872 H         1 <0>         0.0767
     38 H13        -9.7002   -4.5014    2.1024 H         1 <0>         0.0704
     39 H14       -10.0287   -4.7777    3.8298 H         1 <0>         0.0722
     40 H15        -3.3940   -1.3157   -5.9000 H         1 <0>         0.0702
     41 H16        -3.8663    0.3855   -5.6738 H         1 <0>         0.0701
     42 H17        -1.5297   -0.6025   -7.3712 H         1 <0>         0.0664
     43 H18        -3.0930   -0.0224   -7.9942 H         1 <0>         0.0808
     44 H19        -2.0020    1.0987   -7.1450 H         1 <0>         0.0663
@<TRIPOS>BOND
     1    1    2 1
     2    1   26 1
     3    1   27 1
     4    1   28 1
     5    2    3 1
     6    2   29 1
     7    2   30 1
     8    3   17 1
     9    3    4 am
    10    4    5 2
    11    4    6 1
    12    6    7 2
    13    6   16 1
    14    7    8 1
    15    7   31 1
    16    8    9 1
    17    8   32 1
    18    9   14 ar
    19    9   10 ar
    20   10   11 ar
    21   10   33 1
    22   11   12 ar
    23   11   34 1
    24   12   13 ar
    25   12   35 1
    26   13   14 ar
    27   13   15 1
    28   14   36 1
    29   15   37 1
    30   15   38 1
    31   15   39 1
    32   16   17 1
    33   17   18 2
    34   18   19 1
    35   18   21 1
    36   19   20 3
    37   21   22 2
    38   21   23 1
    39   23   24 1
    40   24   25 1
    41   24   40 1
    42   24   41 1
    43   25   42 1
    44   25   43 1
    45   25   44 1
@<TRIPOS>MOLECULE
CHEMBL482349
   45    48     0     0     0
SMALL
USER_CHARGES

@<TRIPOS>ATOM
      1 C1         -0.0173    1.4248    0.0099 C.3       1 <0>         0.0222
      2 O1          0.0021   -0.0041    0.0020 O.3       1 <0>        -0.2998
      3 C2         -1.2015   -0.6381    0.0101 C.ar      1 <0>         0.1125
      4 C3         -2.3661    0.1012    0.0194 C.ar      1 <0>        -0.1253
      5 C4         -3.6027   -0.5507    0.0273 C.ar      1 <0>         0.0602
      6 C5         -3.6468   -1.9546    0.0256 C.ar      1 <0>         0.0544
      7 C6         -2.4686   -2.6876    0.0161 C.ar      1 <0>        -0.1734
      8 C7         -1.2512   -2.0332    0.0031 C.ar      1 <0>         0.1402
      9 O2         -0.0963   -2.7517   -0.0113 O.3       1 <0>        -0.2950
     10 C8         -0.2182   -4.1755   -0.0179 C.3       1 <0>         0.0213
     11 N1         -4.9894   -2.2941    0.0346 N.pl3     1 <0>        -0.4132
     12 C9         -5.7000   -1.1293    0.0413 C.2       1 <0>         0.2745
     13 N2         -4.8891   -0.1123    0.0371 N.2       1 <0>        -0.4664
     14 C10        -5.5155   -3.5826    0.0365 C.2       1 <0>         0.1180
     15 C11        -6.4727   -4.1169    0.8562 C.2       1 <0>        -0.2336
     16 C12        -6.8486   -5.4259    0.6811 C.2       1 <0>         0.1969
     17 C13        -6.2334   -6.1589   -0.3323 C.2       1 <0>        -0.2730
     18 S1         -5.1185   -4.9542   -1.0343 S.3       1 <0>         0.1474
     19 C14        -6.4419   -7.5045   -0.7095 C.2       1 <0>         0.6099
     20 O3         -7.2575   -8.1850   -0.1129 O.2       1 <0>        -0.5139
     21 N3         -5.7384   -8.0353   -1.7292 N.am      1 <0>        -0.8531
     22 O4         -7.7943   -5.9914    1.4745 O.3       1 <0>        -0.2642
     23 C15        -8.3707   -5.1643    2.4873 C.3       1 <0>         0.1356
     24 C16        -9.3919   -5.9567    3.2620 C.2       1 <0>        -0.0318
     25 C17        -9.1503   -6.6819    4.3689 C.2       1 <0>        -0.1679
     26 C18       -10.3824   -7.2539    4.7608 C.2       1 <0>        -0.2191
     27 C19       -11.3032   -6.8441    3.8700 C.2       1 <0>        -0.0185
     28 O5        -10.6987   -6.0540    2.9678 O.3       1 <0>        -0.1692
     29 H1          1.0053    1.8021    0.0021 H         1 <0>         0.1048
     30 H2         -0.5445    1.7859   -0.8732 H         1 <0>         0.0587
     31 H3         -0.5275    1.7763    0.9067 H         1 <0>         0.0586
     32 H4         -2.3227    1.1803    0.0210 H         1 <0>         0.1506
     33 H5         -2.5028   -3.7670    0.0152 H         1 <0>         0.1404
     34 H6          0.7747   -4.6250   -0.0294 H         1 <0>         0.1068
     35 H7         -0.7529   -4.4985    0.8753 H         1 <0>         0.0574
     36 H8         -0.7692   -4.4889   -0.9045 H         1 <0>         0.0580
     37 H9         -6.7778   -1.0617    0.0488 H         1 <0>         0.2233
     38 H10        -6.9263   -3.5166    1.6309 H         1 <0>         0.1599
     39 H11        -5.0890   -7.4935   -2.2042 H         1 <0>         0.3971
     40 H12        -5.8815   -8.9591   -1.9882 H         1 <0>         0.4103
     41 H13        -7.5885   -4.8199    3.1638 H         1 <0>         0.0990
     42 H14        -8.8539   -4.3046    2.0229 H         1 <0>         0.0855
     43 H15        -8.1978   -6.8041    4.8631 H         1 <0>         0.1519
     44 H16       -10.5517   -7.8969    5.6119 H         1 <0>         0.1537
     45 H17       -12.3516   -7.1033    3.8807 H         1 <0>         0.2082
@<TRIPOS>BOND
     1    1    2 1
     2    1   29 1
     3    1   30 1
     4    1   31 1
     5    2    3 1
     6    3    8 ar
     7    3    4 ar
     8    4    5 ar
     9    4   32 1
    10    5   13 1
    11    5    6 ar
    12    6    7 ar
    13    6   11 1
    14    7    8 ar
    15    7   33 1
    16    8    9 1
    17    9   10 1
    18   10   34 1
    19   10   35 1
    20   10   36 1
    21   11   12 1
    22   11   14 1
    23   12   13 2
    24   12   37 1
    25   14   18 1
    26   14   15 2
    27   15   16 1
    28   15   38 1
    29   16   17 2
    30   16   22 1
    31   17   18 1
    32   17   19 1
    33   19   20 2
    34   19   21 am
    35   21   39 1
    36   21   40 1
    37   22   23 1
    38   23   24 1
    39   23   41 1
    40   23   42 1
    41   24   28 1
    42   24   25 2
    43   25   26 1
    44   25   43 1
    45   26   27 2
    46   26   44 1
    47   27   28 1
    48   27   45 1
@<TRIPOS>MOLECULE
CHEMBL519880
   62    66     0     0     0
SMALL
USER_CHARGES

@<TRIPOS>ATOM
      1 C1         -2.9729   -1.1875    1.0963 C.3       1 <0>        -0.0794
      2 C2         -2.0585   -2.3830    1.0199 C.2       1 <0>         0.1234
      3 C3         -1.8874   -3.2113   -0.0754 C.2       1 <0>        -0.1583
      4 C4         -2.4230   -3.2625   -1.3712 C.2       1 <0>         0.3161
      5 N1         -2.0350   -4.2116   -2.1931 N.2       1 <0>        -0.5574
      6 C5         -1.1389   -5.1367   -1.8288 C.2       1 <0>         0.5597
      7 N2         -0.5981   -5.1479   -0.6325 N.2       1 <0>        -0.3740
      8 N3         -0.9603   -4.1694    0.2996 N.pl3     1 <0>        -0.2379
      9 C6         -0.6084   -3.8983    1.5764 C.2       1 <0>         0.3033
     10 N4         -1.2680   -2.8274    1.9892 N.2       1 <0>        -0.4507
     11 C7          0.3610   -4.6706    2.3807 C.ar      1 <0>        -0.0374
     12 C8          0.7657   -5.9406    1.9601 C.ar      1 <0>        -0.0607
     13 C9          1.6714   -6.6639    2.7103 C.ar      1 <0>        -0.1289
     14 C10         2.1835   -6.1394    3.8804 C.ar      1 <0>        -0.0454
     15 C11         1.7875   -4.8710    4.3134 C.ar      1 <0>        -0.1630
     16 C12         0.8781   -4.1323    3.5571 C.ar      1 <0>        -0.0362
     17 C13         2.3360   -4.3112    5.5661 C.2       1 <0>         0.4421
     18 O1          3.3841   -4.7344    6.0131 O.2       1 <0>        -0.4440
     19 C14         1.6106   -3.2372    6.2753 C.ar      1 <0>        -0.1643
     20 C15         0.2423   -3.0550    6.0614 C.ar      1 <0>        -0.0776
     21 C16        -0.4287   -2.0507    6.7272 C.ar      1 <0>        -0.1269
     22 C17         0.2504   -1.2245    7.6055 C.ar      1 <0>        -0.0879
     23 C18         1.6060   -1.3994    7.8223 C.ar      1 <0>        -0.1309
     24 C19         2.2886   -2.4031    7.1673 C.ar      1 <0>        -0.0623
     25 N5         -0.7705   -6.1140   -2.7434 N.pl3     1 <0>        -0.6253
     26 C20        -1.2433   -6.0547   -4.0597 C.ar      1 <0>         0.2362
     27 C21        -1.3755   -4.8272   -4.6948 C.ar      1 <0>        -0.2237
     28 C22        -1.8440   -4.7677   -5.9980 C.ar      1 <0>         0.1700
     29 C23        -2.1811   -5.9371   -6.6689 C.ar      1 <0>         0.0171
     30 C24        -2.0481   -7.1655   -6.0327 C.ar      1 <0>         0.1716
     31 C25        -1.5745   -7.2238   -4.7313 C.ar      1 <0>        -0.2570
     32 O2         -2.3781   -8.3103   -6.6883 O.3       1 <0>        -0.2977
     33 C26        -2.2164   -9.5370   -5.9733 C.3       1 <0>         0.0234
     34 O3         -2.6419   -5.8794   -7.9491 O.3       1 <0>        -0.3102
     35 C27        -1.6681   -5.9469   -8.9927 C.3       1 <0>         0.0343
     36 O4         -1.9742   -3.5652   -6.6196 O.3       1 <0>        -0.2973
     37 C28        -1.6098   -2.4045   -5.8700 C.3       1 <0>         0.0252
     38 H1         -2.4344   -0.2969    0.7724 H         1 <0>         0.0852
     39 H2         -3.8345   -1.3471    0.4479 H         1 <0>         0.0804
     40 H3         -3.3113   -1.0540    2.1238 H         1 <0>         0.0856
     41 H4         -3.1480   -2.5284   -1.6903 H         1 <0>         0.1983
     42 H5          0.3687   -6.3573    1.0462 H         1 <0>         0.1413
     43 H6          1.9806   -7.6447    2.3805 H         1 <0>         0.1375
     44 H7          2.8913   -6.7107    4.4625 H         1 <0>         0.1389
     45 H8          0.5725   -3.1494    3.8842 H         1 <0>         0.1519
     46 H9         -0.2888   -3.6988    5.3759 H         1 <0>         0.1365
     47 H10        -1.4865   -1.9084    6.5624 H         1 <0>         0.1313
     48 H11        -0.2799   -0.4394    8.1239 H         1 <0>         0.1284
     49 H12         2.1298   -0.7511    8.5091 H         1 <0>         0.1302
     50 H13         3.3456   -2.5410    7.3405 H         1 <0>         0.1326
     51 H14        -0.1855   -6.8379   -2.4704 H         1 <0>         0.4294
     52 H15        -1.1135   -3.9185   -4.1733 H         1 <0>         0.1436
     53 H16        -1.4669   -8.1787   -4.2382 H         1 <0>         0.1395
     54 H17        -2.5144  -10.3704   -6.6096 H         1 <0>         0.1052
     55 H18        -1.1716   -9.6550   -5.6858 H         1 <0>         0.0576
     56 H19        -2.8397   -9.5214   -5.0793 H         1 <0>         0.0585
     57 H20        -2.1676   -5.8905   -9.9599 H         1 <0>         0.0930
     58 H21        -0.9717   -5.1142   -8.8943 H         1 <0>         0.0441
     59 H22        -1.1223   -6.8876   -8.9201 H         1 <0>         0.0440
     60 H23        -0.5609   -2.4729   -5.5814 H         1 <0>         0.0536
     61 H24        -1.7611   -1.5149   -6.4813 H         1 <0>         0.1044
     62 H25        -2.2293   -2.3404   -4.9755 H         1 <0>         0.0612
@<TRIPOS>BOND
     1    1    2 1
     2    1   38 1
     3    1   39 1
     4    1   40 1
     5    2   10 1
     6    2    3 2
     7    3    8 1
     8    3    4 1
     9    4    5 2
    10    4   41 1
    11    5    6 1
    12    6    7 2
    13    6   25 1
    14    7    8 1
    15    8    9 1
    16    9   10 2
    17    9   11 1
    18   11   16 ar
    19   11   12 ar
    20   12   13 ar
    21   12   42 1
    22   13   14 ar
    23   13   43 1
    24   14   15 ar
    25   14   44 1
    26   15   16 ar
    27   15   17 1
    28   16   45 1
    29   17   18 2
    30   17   19 1
    31   19   24 ar
    32   19   20 ar
    33   20   21 ar
    34   20   46 1
    35   21   22 ar
    36   21   47 1
    37   22   23 ar
    38   22   48 1
    39   23   24 ar
    40   23   49 1
    41   24   50 1
    42   25   26 1
    43   25   51 1
    44   26   31 ar
    45   26   27 ar
    46   27   28 ar
    47   27   52 1
    48   28   29 ar
    49   28   36 1
    50   29   30 ar
    51   29   34 1
    52   30   31 ar
    53   30   32 1
    54   31   53 1
    55   32   33 1
    56   33   54 1
    57   33   55 1
    58   33   56 1
    59   34   35 1
    60   35   57 1
    61   35   58 1
    62   35   59 1
    63   36   37 1
    64   37   60 1
    65   37   61 1
    66   37   62 1
@<TRIPOS>MOLECULE
CHEMBL519881
   61    65     0     0     0
SMALL
USER_CHARGES

@<TRIPOS>ATOM
      1 C1         -1.5558    1.5460   -0.7626 C.3       1 <0>        -0.0796
      2 C2         -1.1348    0.1063   -0.6179 C.2       1 <0>         0.1229
      3 C3         -1.0425   -0.8239   -1.6385 C.2       1 <0>        -0.1576
      4 C4         -1.2725   -0.8012   -3.0224 C.2       1 <0>         0.3161
      5 N1         -1.0843   -1.8950   -3.7261 N.2       1 <0>        -0.5574
      6 C5         -0.6774   -3.0369   -3.1588 C.2       1 <0>         0.5589
      7 N2         -0.4441   -3.1285   -1.8699 N.2       1 <0>        -0.3725
      8 N3         -0.6215   -2.0063   -1.0534 N.pl3     1 <0>        -0.2371
      9 C6         -0.4758   -1.7616    0.2682 C.2       1 <0>         0.3020
     10 N4         -0.7802   -0.4962    0.5103 N.2       1 <0>        -0.4493
     11 C7         -0.0405   -2.7469    1.2794 C.ar      1 <0>        -0.0120
     12 C8         -0.0357   -4.1097    0.9735 C.ar      1 <0>        -0.0885
     13 C9          0.3719   -5.0269    1.9200 C.ar      1 <0>        -0.1053
     14 C10         0.7764   -4.6017    3.1722 C.ar      1 <0>        -0.1047
     15 C11         0.7747   -3.2490    3.4858 C.ar      1 <0>         0.0824
     16 C12         0.3729   -2.3190    2.5414 C.ar      1 <0>        -0.0857
     17 O1          1.1728   -2.8370    4.7181 O.3       1 <0>        -0.2557
     18 C13         0.2135   -2.4853    5.6139 C.ar      1 <0>         0.1196
     19 C14        -1.1277   -2.6041    5.2786 C.ar      1 <0>        -0.1923
     20 C15        -2.1009   -2.2458    6.1911 C.ar      1 <0>        -0.0815
     21 C16        -1.7396   -1.7691    7.4377 C.ar      1 <0>        -0.1516
     22 C17        -0.4038   -1.6493    7.7742 C.ar      1 <0>        -0.0827
     23 C18         0.5733   -2.0120    6.8676 C.ar      1 <0>        -0.1447
     24 N5         -0.4968   -4.1583   -3.9570 N.pl3     1 <0>        -0.6243
     25 C19        -0.6237   -4.0555   -5.3473 C.ar      1 <0>         0.2367
     26 C20        -0.2083   -2.9019   -5.9986 C.ar      1 <0>        -0.2258
     27 C21        -0.3332   -2.7996   -7.3752 C.ar      1 <0>         0.1704
     28 C22        -0.8744   -3.8522   -8.1036 C.ar      1 <0>         0.0159
     29 C23        -1.2900   -5.0067   -7.4510 C.ar      1 <0>         0.1721
     30 C24        -1.1596   -5.1096   -6.0749 C.ar      1 <0>        -0.2586
     31 O2         -1.8197   -6.0372   -8.1629 O.3       1 <0>        -0.2977
     32 C25        -2.2256   -7.1930   -7.4271 C.3       1 <0>         0.0234
     33 O3         -0.9979   -3.7523   -9.4561 O.3       1 <0>        -0.3101
     34 C26         0.1060   -4.2035  -10.2434 C.3       1 <0>         0.0343
     35 O4          0.0733   -1.6694   -8.0129 O.3       1 <0>        -0.2974
     36 C27         0.6196   -0.6275   -7.2016 C.3       1 <0>         0.0252
     37 H1         -0.6792    2.1628   -0.9605 H         1 <0>         0.0855
     38 H2         -2.2588    1.6375   -1.5906 H         1 <0>         0.0808
     39 H3         -2.0340    1.8791    0.1585 H         1 <0>         0.0855
     40 H4         -1.6017    0.1071   -3.5051 H         1 <0>         0.1987
     41 H5         -0.3513   -4.4453   -0.0033 H         1 <0>         0.1417
     42 H6          0.3748   -6.0804    1.6824 H         1 <0>         0.1387
     43 H7          1.0944   -5.3244    3.9090 H         1 <0>         0.1377
     44 H8          0.3754   -1.2662    2.7826 H         1 <0>         0.1451
     45 H9         -1.4105   -2.9761    4.3049 H         1 <0>         0.1269
     46 H10        -3.1449   -2.3378    5.9304 H         1 <0>         0.1257
     47 H11        -2.5020   -1.4895    8.1497 H         1 <0>         0.1255
     48 H12        -0.1242   -1.2760    8.7483 H         1 <0>         0.1317
     49 H13         1.6165   -1.9231    7.1328 H         1 <0>         0.1328
     50 H14        -0.2828   -5.0130   -3.5514 H         1 <0>         0.4295
     51 H15         0.2119   -2.0838   -5.4323 H         1 <0>         0.1460
     52 H16        -1.4784   -6.0084   -5.5681 H         1 <0>         0.1394
     53 H17        -1.3660   -7.6105   -6.9029 H         1 <0>         0.0576
     54 H18        -2.9913   -6.9127   -6.7037 H         1 <0>         0.0585
     55 H19        -2.6293   -7.9374   -8.1134 H         1 <0>         0.1051
     56 H20         0.9949   -3.6271   -9.9870 H         1 <0>         0.0440
     57 H21         0.2875   -5.2595  -10.0431 H         1 <0>         0.0439
     58 H22        -0.1224   -4.0683  -11.3006 H         1 <0>         0.0929
     59 H23        -0.1267   -0.3025   -6.4767 H         1 <0>         0.0614
     60 H24         1.4989   -0.9996   -6.6759 H         1 <0>         0.0536
     61 H25         0.9031    0.2142   -7.8335 H         1 <0>         0.1043
@<TRIPOS>BOND
     1    1    2 1
     2    1   37 1
     3    1   38 1
     4    1   39 1
     5    2   10 1
     6    2    3 2
     7    3    8 1
     8    3    4 1
     9    4    5 2
    10    4   40 1
    11    5    6 1
    12    6    7 2
    13    6   24 1
    14    7    8 1
    15    8    9 1
    16    9   10 2
    17    9   11 1
    18   11   16 ar
    19   11   12 ar
    20   12   13 ar
    21   12   41 1
    22   13   14 ar
    23   13   42 1
    24   14   15 ar
    25   14   43 1
    26   15   16 ar
    27   15   17 1
    28   16   44 1
    29   17   18 1
    30   18   23 ar
    31   18   19 ar
    32   19   20 ar
    33   19   45 1
    34   20   21 ar
    35   20   46 1
    36   21   22 ar
    37   21   47 1
    38   22   23 ar
    39   22   48 1
    40   23   49 1
    41   24   25 1
    42   24   50 1
    43   25   30 ar
    44   25   26 ar
    45   26   27 ar
    46   26   51 1
    47   27   28 ar
    48   27   35 1
    49   28   29 ar
    50   28   33 1
    51   29   30 ar
    52   29   31 1
    53   30   52 1
    54   31   32 1
    55   32   53 1
    56   32   54 1
    57   32   55 1
    58   33   34 1
    59   34   56 1
    60   34   57 1
    61   34   58 1
    62   35   36 1
    63   36   59 1
    64   36   60 1
    65   36   61 1
@<TRIPOS>MOLECULE
CHEMBL520037
   53    56     0     0     0
SMALL
USER_CHARGES

@<TRIPOS>ATOM
      1 C1          0.0158    1.5043    0.0085 C.3       1 <0>        -0.0801
      2 C2          0.1773    0.0061   -0.0108 C.2       1 <0>         0.1247
      3 C3          0.0991   -0.8092   -1.1264 C.2       1 <0>        -0.1562
      4 C4         -0.1302   -0.5962   -2.4942 C.2       1 <0>         0.3166
      5 N1         -0.1408   -1.6227   -3.3145 N.2       1 <0>        -0.5570
      6 C5          0.0620   -2.8729   -2.8818 C.2       1 <0>         0.5602
      7 N2          0.2823   -3.1436   -1.6161 N.2       1 <0>        -0.3746
      8 N3          0.3086   -2.1035   -0.6807 N.pl3     1 <0>        -0.2371
      9 C6          0.5020   -2.0333    0.6555 C.2       1 <0>         0.3002
     10 N4          0.4258   -0.7683    1.0381 N.2       1 <0>        -0.4492
     11 C7          0.7625   -3.1835    1.5453 C.ar      1 <0>        -0.0257
     12 C8          0.5260   -4.4848    1.0970 C.ar      1 <0>        -0.0595
     13 C9          0.7718   -5.5541    1.9327 C.ar      1 <0>        -0.1197
     14 C10         1.2513   -5.3397    3.2131 C.ar      1 <0>        -0.0565
     15 C11         1.4873   -4.0532    3.6638 C.ar      1 <0>        -0.1855
     16 C12         1.2517   -2.9748    2.8361 C.ar      1 <0>        -0.0236
     17 C13         2.0086   -3.8295    5.0600 C.3       1 <0>         0.5112
     18 F1          2.1728   -5.0629    5.6996 F         1 <0>        -0.1755
     19 F2          3.2402   -3.1689    4.9977 F         1 <0>        -0.1741
     20 F3          1.0966   -3.0492    5.7788 F         1 <0>        -0.1731
     21 N5          0.0381   -3.9149   -3.7989 N.pl3     1 <0>        -0.6231
     22 C14        -0.0783   -3.6410   -5.1667 C.ar      1 <0>         0.2361
     23 C15         0.5000   -2.4954   -5.6965 C.ar      1 <0>        -0.2274
     24 C16         0.3852   -2.2234   -7.0508 C.ar      1 <0>         0.1707
     25 C17        -0.3086   -3.0981   -7.8785 C.ar      1 <0>         0.0155
     26 C18        -0.8868   -4.2448   -7.3475 C.ar      1 <0>         0.1725
     27 C19        -0.7671   -4.5179   -5.9938 C.ar      1 <0>        -0.2595
     28 O1         -1.5660   -5.1013   -8.1566 O.3       1 <0>        -0.2977
     29 C20        -2.1345   -6.2600   -7.5433 C.3       1 <0>         0.0234
     30 O2         -0.4222   -2.8313   -9.2090 O.3       1 <0>        -0.3101
     31 C21         0.5995   -3.3485  -10.0639 C.3       1 <0>         0.0343
     32 O3          0.9510   -1.1008   -7.5694 O.3       1 <0>        -0.2973
     33 C22         1.6486   -0.2467   -6.6607 C.3       1 <0>         0.0252
     34 H1          0.9865    1.9763   -0.1438 H         1 <0>         0.0861
     35 H2         -0.6642    1.8067   -0.7878 H         1 <0>         0.0811
     36 H3         -0.3915    1.8134    0.9711 H         1 <0>         0.0863
     37 H4         -0.2970    0.4027   -2.8694 H         1 <0>         0.1994
     38 H5          0.1512   -4.6534    0.0982 H         1 <0>         0.1451
     39 H6          0.5893   -6.5609    1.5873 H         1 <0>         0.1425
     40 H7          1.4417   -6.1806    3.8635 H         1 <0>         0.1445
     41 H8          1.4410   -1.9713    3.1875 H         1 <0>         0.1486
     42 H9          0.1021   -4.8328   -3.4918 H         1 <0>         0.4296
     43 H10         1.0392   -1.8157   -5.0532 H         1 <0>         0.1481
     44 H11        -1.2132   -5.4110   -5.5817 H         1 <0>         0.1394
     45 H12        -1.3433   -6.8543   -7.0861 H         1 <0>         0.0576
     46 H13        -2.8471   -5.9532   -6.7776 H         1 <0>         0.0585
     47 H14        -2.6467   -6.8564   -8.2983 H         1 <0>         0.1051
     48 H15         0.3887   -3.0645  -11.0949 H         1 <0>         0.0930
     49 H16         1.5648   -2.9401   -9.7647 H         1 <0>         0.0440
     50 H17         0.6243   -4.4353   -9.9841 H         1 <0>         0.0439
     51 H18         2.0502    0.6097   -7.2025 H         1 <0>         0.1043
     52 H19         0.9618    0.1012   -5.8890 H         1 <0>         0.0615
     53 H20         2.4659   -0.7993   -6.1974 H         1 <0>         0.0535
@<TRIPOS>BOND
     1    1    2 1
     2    1   34 1
     3    1   35 1
     4    1   36 1
     5    2   10 1
     6    2    3 2
     7    3    8 1
     8    3    4 1
     9    4    5 2
    10    4   37 1
    11    5    6 1
    12    6    7 2
    13    6   21 1
    14    7    8 1
    15    8    9 1
    16    9   10 2
    17    9   11 1
    18   11   16 ar
    19   11   12 ar
    20   12   13 ar
    21   12   38 1
    22   13   14 ar
    23   13   39 1
    24   14   15 ar
    25   14   40 1
    26   15   16 ar
    27   15   17 1
    28   16   41 1
    29   17   18 1
    30   17   19 1
    31   17   20 1
    32   21   22 1
    33   21   42 1
    34   22   27 ar
    35   22   23 ar
    36   23   24 ar
    37   23   43 1
    38   24   25 ar
    39   24   32 1
    40   25   26 ar
    41   25   30 1
    42   26   27 ar
    43   26   28 1
    44   27   44 1
    45   28   29 1
    46   29   45 1
    47   29   46 1
    48   29   47 1
    49   30   31 1
    50   31   48 1
    51   31   49 1
    52   31   50 1
    53   32   33 1
    54   33   51 1
    55   33   52 1
    56   33   53 1
@<TRIPOS>MOLECULE
CHEMBL519286
   45    48     0     0     0
SMALL
USER_CHARGES

@<TRIPOS>ATOM
      1 C1         -0.0173    1.4248    0.0099 C.3       1 <0>         0.0223
      2 O1          0.0021   -0.0041    0.0020 O.3       1 <0>        -0.2999
      3 C2          0.6064   -0.6077   -1.0568 C.ar      1 <0>         0.1124
      4 C3          1.1688    0.1605   -2.0550 C.ar      1 <0>        -0.1253
      5 C4          1.7901   -0.4601   -3.1426 C.ar      1 <0>         0.0600
      6 C5          1.8355   -1.8625   -3.2080 C.ar      1 <0>         0.0546
      7 C6          1.2663   -2.6248   -2.1979 C.ar      1 <0>        -0.1732
      8 C7          0.6590   -2.0011   -1.1242 C.ar      1 <0>         0.1400
      9 O2          0.1056   -2.7483   -0.1314 O.3       1 <0>        -0.2951
     10 C8          0.1943   -4.1685   -0.2621 C.3       1 <0>         0.0213
     11 N1          2.5039   -2.1682   -4.3818 N.pl3     1 <0>        -0.4130
     12 C9          2.8350   -0.9859   -4.9771 C.2       1 <0>         0.2745
     13 N2          2.4177    0.0103   -4.2526 N.2       1 <0>        -0.4668
     14 C10         2.7852   -3.4430   -4.8640 C.2       1 <0>         0.1169
     15 C11         2.5620   -3.9560   -6.1133 C.2       1 <0>        -0.2324
     16 C12         2.9218   -5.2546   -6.3774 C.2       1 <0>         0.1977
     17 C13         3.5035   -5.9992   -5.3527 C.2       1 <0>        -0.2766
     18 S1          3.5356   -4.8205   -4.0123 S.3       1 <0>         0.1421
     19 C14         3.9553   -7.3379   -5.3715 C.2       1 <0>         0.6104
     20 O3          3.8568   -7.9998   -6.3896 O.2       1 <0>        -0.5148
     21 N3          4.4952   -7.8826   -4.2632 N.am      1 <0>        -0.8538
     22 O4          2.7161   -5.7989   -7.6041 O.3       1 <0>        -0.2634
     23 C15         2.1142   -4.9611   -8.5930 C.3       1 <0>         0.1241
     24 C16         1.9659   -5.7304   -9.8804 C.2       1 <0>        -0.1957
     25 C17         2.9138   -5.8137  -10.9260 C.2       1 <0>        -0.1945
     26 C18         2.3771   -6.5994  -11.8769 C.2       1 <0>        -0.0378
     27 O5          1.1613   -6.9941  -11.4648 O.3       1 <0>        -0.1718
     28 C19         0.9087   -6.4742  -10.2525 C.2       1 <0>        -0.0008
     29 H1          1.0053    1.8021    0.0021 H         1 <0>         0.0586
     30 H2         -0.5445    1.7859   -0.8732 H         1 <0>         0.0585
     31 H3         -0.5275    1.7763    0.9067 H         1 <0>         0.1048
     32 H4          1.1289    1.2382   -1.9966 H         1 <0>         0.1505
     33 H5          1.3011   -3.7030   -2.2486 H         1 <0>         0.1404
     34 H6         -0.3070   -4.4811   -1.1781 H         1 <0>         0.0573
     35 H7          1.2425   -4.4650   -0.3022 H         1 <0>         0.0580
     36 H8         -0.2849   -4.6428    0.5943 H         1 <0>         0.1068
     37 H9          3.3661   -0.8913   -5.9127 H         1 <0>         0.2229
     38 H10         2.1084   -3.3472   -6.8814 H         1 <0>         0.1591
     39 H11         4.5736   -7.3556   -3.4526 H         1 <0>         0.3970
     40 H12         4.8053   -8.8015   -4.2761 H         1 <0>         0.4099
     41 H13         1.1320   -4.6388   -8.2471 H         1 <0>         0.0750
     42 H14         2.7444   -4.0880   -8.7620 H         1 <0>         0.0775
     43 H15         3.8826   -5.3374  -10.9559 H         1 <0>         0.1509
     44 H16         2.8444   -6.8671  -12.8130 H         1 <0>         0.2064
     45 H17         0.0085   -6.6256   -9.6754 H         1 <0>         0.2051
@<TRIPOS>BOND
     1    1    2 1
     2    1   29 1
     3    1   30 1
     4    1   31 1
     5    2    3 1
     6    3    8 ar
     7    3    4 ar
     8    4    5 ar
     9    4   32 1
    10    5   13 1
    11    5    6 ar
    12    6    7 ar
    13    6   11 1
    14    7    8 ar
    15    7   33 1
    16    8    9 1
    17    9   10 1
    18   10   34 1
    19   10   35 1
    20   10   36 1
    21   11   12 1
    22   11   14 1
    23   12   13 2
    24   12   37 1
    25   14   18 1
    26   14   15 2
    27   15   16 1
    28   15   38 1
    29   16   17 2
    30   16   22 1
    31   17   18 1
    32   17   19 1
    33   19   20 2
    34   19   21 am
    35   21   39 1
    36   21   40 1
    37   22   23 1
    38   23   24 1
    39   23   41 1
    40   23   42 1
    41   24   28 2
    42   24   25 1
    43   25   26 2
    44   25   43 1
    45   26   27 1
    46   26   44 1
    47   27   28 1
    48   28   45 1
@<TRIPOS>MOLECULE
CHEMBL519715
   50    53     0     0     0
SMALL
USER_CHARGES

@<TRIPOS>ATOM
      1 C1          0.0158    1.5043    0.0085 C.3       1 <0>        -0.0789
      2 C2          0.1773    0.0061   -0.0108 C.2       1 <0>         0.1221
      3 C3          0.0991   -0.8092   -1.1264 C.2       1 <0>        -0.1615
      4 C4         -0.1302   -0.5962   -2.4942 C.2       1 <0>         0.3154
      5 N1         -0.1408   -1.6227   -3.3145 N.2       1 <0>        -0.5589
      6 C5          0.0620   -2.8729   -2.8818 C.2       1 <0>         0.5571
      7 N2          0.2823   -3.1436   -1.6161 N.2       1 <0>        -0.3710
      8 N3          0.3086   -2.1035   -0.6807 N.pl3     1 <0>        -0.2398
      9 C6          0.5020   -2.0333    0.6555 C.2       1 <0>         0.3069
     10 N4          0.4258   -0.7683    1.0381 N.2       1 <0>        -0.4525
     11 C7          0.7625   -3.1835    1.5453 C.ar      1 <0>        -0.0312
     12 C8          0.5260   -4.4846    1.0970 C.ar      1 <0>        -0.0897
     13 C9          0.7719   -5.5541    1.9329 C.ar      1 <0>        -0.1234
     14 C10         1.2513   -5.3397    3.2131 C.ar      1 <0>        -0.1019
     15 C11         1.4874   -4.0530    3.6638 C.ar      1 <0>        -0.1236
     16 C12         1.2518   -2.9748    2.8363 C.ar      1 <0>        -0.0720
     17 N5          0.0381   -3.9149   -3.7989 N.pl3     1 <0>        -0.6243
     18 C13        -0.0783   -3.6410   -5.1667 C.ar      1 <0>         0.2378
     19 C14         0.5000   -2.4954   -5.6965 C.ar      1 <0>        -0.2277
     20 C15         0.3852   -2.2234   -7.0508 C.ar      1 <0>         0.1706
     21 C16        -0.3086   -3.0981   -7.8785 C.ar      1 <0>         0.0145
     22 C17        -0.8868   -4.2448   -7.3475 C.ar      1 <0>         0.1724
     23 C18        -0.7671   -4.5179   -5.9938 C.ar      1 <0>        -0.2602
     24 O1         -1.5660   -5.1013   -8.1566 O.3       1 <0>        -0.2979
     25 C19        -2.1345   -6.2600   -7.5433 C.3       1 <0>         0.0234
     26 O2         -0.4222   -2.8313   -9.2090 O.3       1 <0>        -0.3101
     27 C20         0.5995   -3.3485  -10.0639 C.3       1 <0>         0.0343
     28 O3          0.9510   -1.1008   -7.5694 O.3       1 <0>        -0.2975
     29 C21         1.6486   -0.2467   -6.6607 C.3       1 <0>         0.0252
     30 H1          0.9865    1.9763   -0.1438 H         1 <0>         0.0849
     31 H2         -0.6642    1.8067   -0.7878 H         1 <0>         0.0801
     32 H3         -0.3915    1.8134    0.9711 H         1 <0>         0.0852
     33 H4         -0.2970    0.4027   -2.8694 H         1 <0>         0.1979
     34 H5          0.1512   -4.6532    0.0983 H         1 <0>         0.1348
     35 H6          0.5894   -6.5609    1.5875 H         1 <0>         0.1276
     36 H7          1.4417   -6.1806    3.8635 H         1 <0>         0.1271
     37 H8          1.8609   -3.8927    4.6644 H         1 <0>         0.1310
     38 H9          1.4410   -1.9712    3.1877 H         1 <0>         0.1368
     39 H10         0.1021   -4.8328   -3.4918 H         1 <0>         0.4292
     40 H11         1.0392   -1.8157   -5.0532 H         1 <0>         0.1482
     41 H12        -1.2132   -5.4110   -5.5817 H         1 <0>         0.1392
     42 H13        -1.3433   -6.8543   -7.0861 H         1 <0>         0.0575
     43 H14        -2.8471   -5.9532   -6.7776 H         1 <0>         0.0584
     44 H15        -2.6467   -6.8564   -8.2983 H         1 <0>         0.1049
     45 H16         0.3887   -3.0645  -11.0949 H         1 <0>         0.0927
     46 H17         1.5648   -2.9401   -9.7647 H         1 <0>         0.0439
     47 H18         0.6243   -4.4353   -9.9841 H         1 <0>         0.0437
     48 H19         2.0502    0.6097   -7.2025 H         1 <0>         0.1040
     49 H20         0.9618    0.1012   -5.8890 H         1 <0>         0.0616
     50 H21         2.4659   -0.7993   -6.1974 H         1 <0>         0.0534
@<TRIPOS>BOND
     1    1    2 1
     2    1   30 1
     3    1   31 1
     4    1   32 1
     5    2   10 1
     6    2    3 2
     7    3    8 1
     8    3    4 1
     9    4    5 2
    10    4   33 1
    11    5    6 1
    12    6    7 2
    13    6   17 1
    14    7    8 1
    15    8    9 1
    16    9   10 2
    17    9   11 1
    18   11   16 ar
    19   11   12 ar
    20   12   13 ar
    21   12   34 1
    22   13   14 ar
    23   13   35 1
    24   14   15 ar
    25   14   36 1
    26   15   16 ar
    27   15   37 1
    28   16   38 1
    29   17   18 1
    30   17   39 1
    31   18   23 ar
    32   18   19 ar
    33   19   20 ar
    34   19   40 1
    35   20   21 ar
    36   20   28 1
    37   21   22 ar
    38   21   26 1
    39   22   23 ar
    40   22   24 1
    41   23   41 1
    42   24   25 1
    43   25   42 1
    44   25   43 1
    45   25   44 1
    46   26   27 1
    47   27   45 1
    48   27   46 1
    49   27   47 1
    50   28   29 1
    51   29   48 1
    52   29   49 1
    53   29   50 1
@<TRIPOS>MOLECULE
CHEMBL522170
   69    73     0     0     0
SMALL
USER_CHARGES

@<TRIPOS>ATOM
      1 C1          0.3002    1.2717   -0.1325 C.3       1 <0>        -0.1937
      2 C2          0.0658   -0.2353   -0.0099 C.3       1 <0>         0.1027
      3 H1          0.5175   -0.7437   -0.8617 H         1 <0>         0.0903
      4 C3          0.6914   -0.7389    1.2653 C.ar      1 <0>        -0.0434
      5 C4         -0.0757   -0.8658    2.4085 C.ar      1 <0>        -0.0899
      6 C5          0.4981   -1.3277    3.5780 C.ar      1 <0>        -0.0831
      7 C6          1.8391   -1.6631    3.6045 C.ar      1 <0>        -0.1131
      8 C7          2.6058   -1.5371    2.4615 C.ar      1 <0>        -0.0717
      9 C8          2.0308   -1.0791    1.2905 C.ar      1 <0>        -0.1772
     10 C9          2.8655   -0.9467    0.0428 C.3       1 <0>         0.5055
     11 F1          4.1779   -1.3476    0.3149 F         1 <0>        -0.1705
     12 F2          2.3300   -1.7563   -0.9647 F         1 <0>        -0.1777
     13 F3          2.8635    0.3868   -0.3802 F         1 <0>        -0.1708
     14 O1         -1.3386   -0.4987    0.0122 O.3       1 <0>        -0.2558
     15 C10        -1.9644   -0.6065   -1.1879 C.2       1 <0>         0.1989
     16 C11        -1.2920   -0.3554   -2.3585 C.2       1 <0>        -0.2279
     17 C12        -1.9572   -0.4752   -3.5487 C.2       1 <0>         0.1087
     18 S1         -3.5939   -0.9589   -3.0262 S.3       1 <0>         0.1495
     19 C13        -3.3049   -0.9806   -1.2646 C.2       1 <0>        -0.2713
     20 C14        -4.2026   -1.2937   -0.2193 C.2       1 <0>         0.6110
     21 O2         -3.8268   -1.2537    0.9389 O.2       1 <0>        -0.5135
     22 N1         -5.4747   -1.6367   -0.5035 N.am      1 <0>        -0.8529
     23 N2         -1.4787   -0.2710   -4.8397 N.pl3     1 <0>        -0.4129
     24 C15        -0.7849    0.8174   -5.2835 C.2       1 <0>         0.2798
     25 N3         -0.4942    0.6776   -6.5433 N.2       1 <0>        -0.4627
     26 C16        -0.9795   -0.5081   -6.9974 C.ar      1 <0>         0.0264
     27 C17        -1.6122   -1.1359   -5.9109 C.ar      1 <0>         0.0860
     28 C18        -2.2019   -2.3801   -6.0785 C.ar      1 <0>        -0.1428
     29 C19        -2.1595   -2.9964   -7.3169 C.ar      1 <0>         0.1486
     30 C20        -1.5290   -2.3742   -8.3902 C.ar      1 <0>        -0.2001
     31 C21        -0.9523   -1.1448   -8.2406 C.ar      1 <0>        -0.0136
     32 O3         -2.7362   -4.2159   -7.4856 O.3       1 <0>        -0.3106
     33 C22        -2.6566   -4.7964   -8.7889 C.3       1 <0>         0.0610
     34 C23        -3.3559   -6.1573   -8.7847 C.3       1 <0>        -0.0992
     35 C24        -2.5919   -7.1228   -7.8740 C.3       1 <0>        -0.1432
     36 C25        -3.2501   -8.5028   -7.9363 C.3       1 <0>        -0.0069
     37 N4         -3.2193   -9.0017   -9.3164 N.4       1 <0>        -0.3860
     38 C26        -4.0100   -8.1193  -10.1828 C.3       1 <0>        -0.0040
     39 C27        -3.3811   -6.7246  -10.2069 C.3       1 <0>        -0.1423
     40 C28        -3.7814  -10.3582   -9.3578 C.3       1 <0>        -0.0475
     41 H2          1.3714    1.4726   -0.1493 H         1 <0>         0.0983
     42 H3         -0.1523    1.6359   -1.0548 H         1 <0>         0.0692
     43 H4         -0.1515    1.7801    0.7193 H         1 <0>         0.0789
     44 H5         -1.1232   -0.6038    2.3877 H         1 <0>         0.1486
     45 H6         -0.1010   -1.4262    4.4712 H         1 <0>         0.1383
     46 H7          2.2876   -2.0234    4.5186 H         1 <0>         0.1395
     47 H8          3.6534   -1.7988    2.4823 H         1 <0>         0.1429
     48 H9         -0.2514   -0.0667   -2.3403 H         1 <0>         0.1600
     49 H10        -5.7739   -1.6685   -1.4257 H         1 <0>         0.3966
     50 H11        -6.0909   -1.8517    0.2140 H         1 <0>         0.4112
     51 H12        -0.5171    1.6702   -4.6773 H         1 <0>         0.2253
     52 H13        -2.6912   -2.8654   -5.2470 H         1 <0>         0.1349
     53 H14        -1.5012   -2.8646   -9.3520 H         1 <0>         0.1381
     54 H15        -0.4644   -0.6712   -9.0797 H         1 <0>         0.1432
     55 H16        -3.1440   -4.1397   -9.5096 H         1 <0>         0.0759
     56 H17        -1.6103   -4.9265   -9.0655 H         1 <0>         0.0712
     57 H18        -4.3767   -6.0414   -8.4204 H         1 <0>         0.1022
     58 H19        -1.5574   -7.1975   -8.2090 H         1 <0>         0.0895
     59 H20        -2.6175   -6.7533   -6.8488 H         1 <0>         0.1199
     60 H21        -2.7088   -9.1926   -7.2889 H         1 <0>         0.1324
     61 H22        -4.2845   -8.4270   -7.6009 H         1 <0>         0.1298
     62 H23        -4.0297   -8.5260  -11.1939 H         1 <0>         0.1341
     63 H24        -5.0282   -8.0517   -9.7995 H         1 <0>         0.1305
     64 H25        -3.9707   -6.0705  -10.8493 H         1 <0>         0.1172
     65 H26        -2.3629   -6.7910  -10.5904 H         1 <0>         0.0929
     66 H27        -4.8115  -10.3357   -9.0020 H         1 <0>         0.1219
     67 H28        -3.7590  -10.7297  -10.3823 H         1 <0>         0.1243
     68 H29        -3.1910  -11.0158   -8.7199 H         1 <0>         0.1243
     69 H30        -2.2650   -9.0251   -9.6432 H         1 <0>         0.4248
@<TRIPOS>BOND
     1    1    2 1
     2    1   41 1
     3    1   42 1
     4    1   43 1
     5    2    3 1
     6    2    4 1
     7    2   14 1
     8    4    9 ar
     9    4    5 ar
    10    5    6 ar
    11    5   44 1
    12    6    7 ar
    13    6   45 1
    14    7    8 ar
    15    7   46 1
    16    8    9 ar
    17    8   47 1
    18    9   10 1
    19   10   11 1
    20   10   12 1
    21   10   13 1
    22   14   15 1
    23   15   19 2
    24   15   16 1
    25   16   17 2
    26   16   48 1
    27   17   18 1
    28   17   23 1
    29   18   19 1
    30   19   20 1
    31   20   21 2
    32   20   22 am
    33   22   49 1
    34   22   50 1
    35   23   27 1
    36   23   24 1
    37   24   25 2
    38   24   51 1
    39   25   26 1
    40   26   31 ar
    41   26   27 ar
    42   27   28 ar
    43   28   29 ar
    44   28   52 1
    45   29   30 ar
    46   29   32 1
    47   30   31 ar
    48   30   53 1
    49   31   54 1
    50   32   33 1
    51   33   34 1
    52   33   55 1
    53   33   56 1
    54   34   39 1
    55   34   35 1
    56   34   57 1
    57   35   36 1
    58   35   58 1
    59   35   59 1
    60   36   37 1
    61   36   60 1
    62   36   61 1
    63   37   38 1
    64   37   40 1
    65   37   69 1
    66   38   39 1
    67   38   62 1
    68   38   63 1
    69   39   64 1
    70   39   65 1
    71   40   66 1
    72   40   67 1
    73   40   68 1
@<TRIPOS>MOLECULE
CHEMBL493545
   66    70     0     0     0
SMALL
USER_CHARGES

@<TRIPOS>ATOM
      1 C1         -0.2962    1.2638   -0.1929 C.3       1 <0>        -0.1765
      2 C2         -0.0343   -0.2365   -0.0464 C.3       1 <0>         0.1176
      3 H1         -0.9844   -0.7694   -0.0102 H         1 <0>         0.0883
      4 C3          0.7702   -0.7233   -1.2241 C.ar      1 <0>        -0.0866
      5 C4          2.1464   -0.8148   -1.1308 C.ar      1 <0>        -0.0766
      6 C5          2.8844   -1.2613   -2.2108 C.ar      1 <0>        -0.1125
      7 C6          2.2467   -1.6167   -3.3850 C.ar      1 <0>        -0.0996
      8 C7          0.8710   -1.5257   -3.4795 C.ar      1 <0>        -0.1103
      9 C8          0.1312   -1.0842   -2.3967 C.ar      1 <0>        -0.0269
     10 Cl1        -1.5976   -0.9758   -2.5123 Cl        1 <0>        -0.0686
     11 O1          0.6932   -0.4774    1.1597 O.3       1 <0>        -0.2583
     12 C9         -0.0304   -0.5995    2.3021 C.2       1 <0>         0.1996
     13 C10        -1.3863   -0.3823    2.3041 C.2       1 <0>        -0.2275
     14 C11        -2.0813   -0.5155    3.4757 C.2       1 <0>         0.1073
     15 S1         -0.7989   -0.9631    4.6336 S.3       1 <0>         0.1475
     16 C12         0.5825   -0.9541    3.5027 C.2       1 <0>        -0.2720
     17 C13         1.9440   -1.2323    3.7586 C.2       1 <0>         0.6106
     18 O2          2.7580   -1.1750    2.8540 O.2       1 <0>        -0.5130
     19 N1          2.3422   -1.5610    5.0036 N.am      1 <0>        -0.8532
     20 N2         -3.4433   -0.3446    3.7060 N.pl3     1 <0>        -0.4126
     21 C14        -4.2016    0.7237    3.3232 C.2       1 <0>         0.2796
     22 N3         -5.4341    0.5542    3.7018 N.2       1 <0>        -0.4632
     23 C15        -5.5550   -0.6325    4.3532 C.ar      1 <0>         0.0262
     24 C16        -4.2823   -1.2286    4.3602 C.ar      1 <0>         0.0861
     25 C17        -4.1016   -2.4665    4.9591 C.ar      1 <0>        -0.1429
     26 C18        -5.1795   -3.1081    5.5436 C.ar      1 <0>         0.1486
     27 C19        -6.4394   -2.5173    5.5320 C.ar      1 <0>        -0.2002
     28 C20        -6.6290   -1.2943    4.9534 C.ar      1 <0>        -0.0138
     29 O3         -5.0068   -4.3216    6.1317 O.3       1 <0>        -0.3106
     30 C21        -6.1604   -4.9292    6.7164 C.3       1 <0>         0.0610
     31 C22        -5.7731   -6.2787    7.3247 C.3       1 <0>        -0.0993
     32 C23        -5.3422   -7.2375    6.2111 C.3       1 <0>        -0.1431
     33 C24        -5.0326   -8.6081    6.8171 C.3       1 <0>        -0.0069
     34 N4         -6.2304   -9.1349    7.4821 N.4       1 <0>        -0.3860
     35 C25        -6.6075   -8.2578    8.5970 C.3       1 <0>        -0.0040
     36 C26        -6.9777   -6.8738    8.0595 C.3       1 <0>        -0.1423
     37 C27        -5.9513  -10.4831    7.9944 C.3       1 <0>        -0.0475
     38 H2          0.6540    1.7967   -0.2291 H         1 <0>         0.0778
     39 H3         -0.8511    1.4476   -1.1129 H         1 <0>         0.0820
     40 H4         -0.8781    1.6159    0.6589 H         1 <0>         0.0678
     41 H5          2.6450   -0.5370   -0.2140 H         1 <0>         0.1456
     42 H6          3.9595   -1.3323   -2.1376 H         1 <0>         0.1342
     43 H7          2.8239   -1.9652   -4.2287 H         1 <0>         0.1360
     44 H8          0.3731   -1.8031   -4.3968 H         1 <0>         0.1377
     45 H9         -1.8977   -0.1096    1.3928 H         1 <0>         0.1609
     46 H10         1.6941   -1.6066    5.7239 H         1 <0>         0.3965
     47 H11         3.2768   -1.7519    5.1793 H         1 <0>         0.4110
     48 H12        -3.8319    1.5842    2.7853 H         1 <0>         0.2252
     49 H13        -3.1249   -2.9275    4.9688 H         1 <0>         0.1350
     50 H14        -7.2737   -3.0273    5.9905 H         1 <0>         0.1381
     51 H15        -7.6112   -0.8452    4.9488 H         1 <0>         0.1431
     52 H16        -6.5573   -4.2796    7.4965 H         1 <0>         0.0759
     53 H17        -6.9194   -5.0811    5.9490 H         1 <0>         0.0712
     54 H18        -4.9505   -6.1396    8.0261 H         1 <0>         0.1023
     55 H19        -6.1473   -7.3350    5.4829 H         1 <0>         0.0894
     56 H20        -4.4511   -6.8473    5.7194 H         1 <0>         0.1198
     57 H21        -4.7252   -9.2932    6.0270 H         1 <0>         0.1324
     58 H22        -4.2272   -8.5095    7.5449 H         1 <0>         0.1298
     59 H23        -7.4629   -8.6843    9.1210 H         1 <0>         0.1342
     60 H24        -5.7685   -8.1667    9.2869 H         1 <0>         0.1305
     61 H25        -7.2557   -6.2236    8.8890 H         1 <0>         0.1172
     62 H26        -7.8168   -6.9637    7.3696 H         1 <0>         0.0929
     63 H27        -5.1290  -10.4374    8.7085 H         1 <0>         0.1219
     64 H28        -6.8402  -10.8753    8.4885 H         1 <0>         0.1243
     65 H29        -5.6775  -11.1369    7.1664 H         1 <0>         0.1243
     66 H30        -6.9897   -9.1798    6.8191 H         1 <0>         0.4247
@<TRIPOS>BOND
     1    1    2 1
     2    1   38 1
     3    1   39 1
     4    1   40 1
     5    2    3 1
     6    2    4 1
     7    2   11 1
     8    4    9 ar
     9    4    5 ar
    10    5    6 ar
    11    5   41 1
    12    6    7 ar
    13    6   42 1
    14    7    8 ar
    15    7   43 1
    16    8    9 ar
    17    8   44 1
    18    9   10 1
    19   11   12 1
    20   12   16 2
    21   12   13 1
    22   13   14 2
    23   13   45 1
    24   14   15 1
    25   14   20 1
    26   15   16 1
    27   16   17 1
    28   17   18 2
    29   17   19 am
    30   19   46 1
    31   19   47 1
    32   20   24 1
    33   20   21 1
    34   21   22 2
    35   21   48 1
    36   22   23 1
    37   23   28 ar
    38   23   24 ar
    39   24   25 ar
    40   25   26 ar
    41   25   49 1
    42   26   27 ar
    43   26   29 1
    44   27   28 ar
    45   27   50 1
    46   28   51 1
    47   29   30 1
    48   30   31 1
    49   30   52 1
    50   30   53 1
    51   31   36 1
    52   31   32 1
    53   31   54 1
    54   32   33 1
    55   32   55 1
    56   32   56 1
    57   33   34 1
    58   33   57 1
    59   33   58 1
    60   34   35 1
    61   34   37 1
    62   34   66 1
    63   35   36 1
    64   35   59 1
    65   35   60 1
    66   36   61 1
    67   36   62 1
    68   37   63 1
    69   37   64 1
    70   37   65 1
@<TRIPOS>MOLECULE
CHEMBL477407
   69    71     0     0     0
SMALL
USER_CHARGES

@<TRIPOS>ATOM
      1 C1          0.8302   -1.1471   -0.4988 C.3       1 <0>        -0.1701
      2 C2         -0.1655   -0.0269   -0.1911 C.3       1 <0>         0.0677
      3 N1         -1.5225   -0.5775   -0.1499 N.am      1 <0>        -0.5480
      4 C3         -2.0409   -0.9114    1.0238 C.2       1 <0>         0.5316
      5 O1         -1.4497   -0.7852    2.0747 O.2       1 <0>        -0.4433
      6 C4         -3.4529   -1.4684    0.9186 C.3       1 <0>        -0.1742
      7 H1         -4.1673   -0.8386    1.4487 H         1 <0>         0.1723
      8 S1         -3.7014   -1.3743   -0.9005 S.3       1 <0>         0.1585
      9 C5         -2.2093   -0.7228   -1.3215 C.2       1 <0>         0.2181
     10 C6         -1.7631   -0.3998   -2.6050 C.2       1 <0>        -0.1594
     11 C7         -0.4065    0.0106   -2.8093 C.1       1 <0>         0.2673
     12 N2          0.6697    0.3362   -2.9713 N.1       1 <0>        -0.4004
     13 C8         -2.6532   -0.4783   -3.7054 C.2       1 <0>         0.5361
     14 O2         -3.8061   -0.8271   -3.5318 O.2       1 <0>        -0.5017
     15 O3         -2.2221   -0.1662   -4.9454 O.3       1 <0>        -0.3388
     16 C9         -3.1729   -0.2676   -6.0074 C.3       1 <0>         0.0972
     17 C10        -2.5161    0.1169   -7.3081 C.2       1 <0>        -0.1642
     18 C11        -2.7069   -0.6130   -8.3791 C.2       1 <0>        -0.1634
     19 C12        -3.5180   -2.9142    1.4150 C.3       1 <0>         0.1577
     20 N3         -4.8915   -3.4099    1.2964 N.pl3     1 <0>        -0.7462
     21 C13        -5.2005   -4.7161    1.6915 C.ar      1 <0>         0.2119
     22 C14        -4.2063   -5.5409    2.2014 C.ar      1 <0>        -0.1778
     23 C15        -4.5114   -6.8299    2.5912 C.ar      1 <0>        -0.0655
     24 C16        -5.8119   -7.3014    2.4734 C.ar      1 <0>         0.0905
     25 C17        -6.8059   -6.4770    1.9636 C.ar      1 <0>        -0.0888
     26 C18        -6.5025   -5.1861    1.5791 C.ar      1 <0>        -0.1690
     27 N4         -6.1213   -8.6104    2.8687 N.am      1 <0>        -0.6736
     28 C19        -5.4986   -9.1585    3.9309 C.2       1 <0>         0.7079
     29 O4         -4.6093   -8.5505    4.4947 O.2       1 <0>        -0.5656
     30 N5         -5.8617  -10.3805    4.3682 N.am      1 <0>        -0.7466
     31 C20        -5.1848  -10.9763    5.5228 C.3       1 <0>         0.1175
     32 C21        -5.7827  -12.3554    5.8088 C.3       1 <0>        -0.0174
     33 N6         -5.1039  -12.9528    6.9666 N.4       1 <0>        -0.3908
     34 C22        -5.4471  -12.2052    8.2033 C.3       1 <0>        -0.0107
     35 C23        -5.1576  -13.2300    9.3288 C.3       1 <0>        -0.1454
     36 C24        -5.6182  -14.5675    8.7053 C.3       1 <0>        -0.1455
     37 C25        -5.5860  -14.3341    7.1835 C.3       1 <0>        -0.0069
     38 H2          1.8399   -0.7374   -0.5294 H         1 <0>         0.0872
     39 H3          0.7708   -1.9095    0.2780 H         1 <0>         0.0654
     40 H4          0.5893   -1.5923   -1.4641 H         1 <0>         0.0639
     41 H5          0.0754    0.4183    0.7742 H         1 <0>         0.1111
     42 H6         -0.1061    0.7355   -0.9678 H         1 <0>         0.1028
     43 H7         -3.5363   -1.2931   -6.0731 H         1 <0>         0.0774
     44 H8         -4.0098    0.4025   -5.8110 H         1 <0>         0.0826
     45 H9         -1.8880    0.9941   -7.3573 H         1 <0>         0.1214
     46 H10        -2.2362   -0.3374   -9.3113 H         1 <0>         0.1103
     47 H11        -3.3350   -1.4902   -8.3299 H         1 <0>         0.1012
     48 H12        -2.8544   -3.5352    0.8133 H         1 <0>         0.0790
     49 H13        -3.2061   -2.9544    2.4587 H         1 <0>         0.0933
     50 H14        -5.5867   -2.8325    0.9440 H         1 <0>         0.4043
     51 H15        -3.1945   -5.1743    2.2927 H         1 <0>         0.1248
     52 H16        -3.7382   -7.4715    2.9874 H         1 <0>         0.1374
     53 H17        -7.8175   -6.8440    1.8721 H         1 <0>         0.1265
     54 H18        -7.2766   -4.5433    1.1867 H         1 <0>         0.1296
     55 H19        -6.7836   -9.1215    2.3778 H         1 <0>         0.4070
     56 H20        -6.5712  -10.8656    3.9185 H         1 <0>         0.4041
     57 H21        -4.1213  -11.0790    5.3074 H         1 <0>         0.0888
     58 H22        -5.3188  -10.3345    6.3936 H         1 <0>         0.0889
     59 H23        -6.8462  -12.2527    6.0243 H         1 <0>         0.1366
     60 H24        -5.6486  -12.9972    4.9380 H         1 <0>         0.1372
     61 H25        -4.8113  -11.3263    8.3105 H         1 <0>         0.1385
     62 H26        -6.4997  -11.9221    8.2022 H         1 <0>         0.1356
     63 H27        -4.0928  -13.2586    9.5599 H         1 <0>         0.0995
     64 H28        -5.7408  -12.9989   10.2202 H         1 <0>         0.1179
     65 H29        -4.9322  -15.3689    8.9797 H         1 <0>         0.1063
     66 H30        -6.6307  -14.8075    9.0299 H         1 <0>         0.1046
     67 H31        -6.5878  -14.4471    6.7692 H         1 <0>         0.1316
     68 H32        -4.9047  -15.0433    6.7134 H         1 <0>         0.1342
     69 H33        -4.1051  -12.9513    6.8238 H         1 <0>         0.4301
@<TRIPOS>BOND
     1    1    2 1
     2    1   38 1
     3    1   39 1
     4    1   40 1
     5    2    3 1
     6    2   41 1
     7    2   42 1
     8    3    9 1
     9    3    4 am
    10    4    5 2
    11    4    6 1
    12    6    7 1
    13    6    8 1
    14    6   19 1
    15    8    9 1
    16    9   10 2
    17   10   11 1
    18   10   13 1
    19   11   12 3
    20   13   14 2
    21   13   15 1
    22   15   16 1
    23   16   17 1
    24   16   43 1
    25   16   44 1
    26   17   18 2
    27   17   45 1
    28   18   46 1
    29   18   47 1
    30   19   20 1
    31   19   48 1
    32   19   49 1
    33   20   21 1
    34   20   50 1
    35   21   26 ar
    36   21   22 ar
    37   22   23 ar
    38   22   51 1
    39   23   24 ar
    40   23   52 1
    41   24   25 ar
    42   24   27 1
    43   25   26 ar
    44   25   53 1
    45   26   54 1
    46   27   28 am
    47   27   55 1
    48   28   29 2
    49   28   30 am
    50   30   31 1
    51   30   56 1
    52   31   32 1
    53   31   57 1
    54   31   58 1
    55   32   33 1
    56   32   59 1
    57   32   60 1
    58   33   37 1
    59   33   34 1
    60   33   69 1
    61   34   35 1
    62   34   61 1
    63   34   62 1
    64   35   36 1
    65   35   63 1
    66   35   64 1
    67   36   37 1
    68   36   65 1
    69   36   66 1
    70   37   67 1
    71   37   68 1
@<TRIPOS>MOLECULE
CHEMBL513909
   78    82     0     0     0
SMALL
USER_CHARGES

@<TRIPOS>ATOM
      1 C1          0.0491    1.5026   -0.0009 C.3       1 <0>        -0.1534
      2 C2          0.0462   -0.0273   -0.0087 C.3       1 <0>        -0.1310
      3 C3         -1.3971   -0.5347    0.0114 C.3       1 <0>         0.1473
      4 H1         -1.9226   -0.1038    0.8636 H         1 <0>         0.1312
      5 C4         -1.4009   -2.0377    0.1251 C.2       1 <0>         0.5100
      6 O1         -1.4031   -2.5569    1.2214 O.2       1 <0>        -0.5107
      7 N1         -1.4023   -2.8106   -0.9793 N.am      1 <0>        -0.5358
      8 C5         -1.4583   -2.2272   -2.2506 C.ar      1 <0>        -0.0366
      9 C6         -1.1788   -2.9520   -3.3944 C.ar      1 <0>         0.1743
     10 N2         -1.2536   -2.3422   -4.5710 N.ar      1 <0>        -0.5620
     11 C7         -1.5888   -1.0644   -4.6607 C.ar      1 <0>         0.5669
     12 N3         -1.8624   -0.3338   -3.5873 N.ar      1 <0>        -0.5566
     13 C8         -1.8053   -0.8759   -2.3813 C.ar      1 <0>         0.4620
     14 N4         -2.0736   -0.1407   -1.2333 N.pl3     1 <0>        -0.5937
     15 C9         -3.0019    0.9924   -1.2610 C.3       1 <0>         0.1582
     16 C10        -4.3822    0.5323   -1.7736 C.3       1 <0>        -0.1307
     17 C11        -4.8858    1.7218   -2.6283 C.3       1 <0>        -0.1218
     18 C12        -3.5931    2.2127   -3.3262 C.3       1 <0>        -0.1135
     19 C13        -2.5001    2.0608   -2.2481 C.3       1 <0>        -0.1282
     20 N5         -1.6555   -0.4721   -5.9132 N.pl3     1 <0>        -0.6222
     21 C14        -1.2533   -1.1834   -7.0430 C.ar      1 <0>         0.1891
     22 C15        -0.3354   -2.2204   -6.9200 C.ar      1 <0>        -0.1065
     23 C16         0.0645   -2.9254   -8.0333 C.ar      1 <0>        -0.0922
     24 C17        -0.4522   -2.5994   -9.2902 C.ar      1 <0>        -0.1414
     25 C18        -1.3751   -1.5569   -9.4150 C.ar      1 <0>        -0.1207
     26 C19        -1.7772   -0.8568   -8.2950 C.ar      1 <0>         0.0852
     27 O2         -2.6792    0.1543   -8.4123 O.3       1 <0>        -0.3157
     28 C20        -3.1735    0.4338   -9.7236 C.3       1 <0>         0.0273
     29 C21        -0.0239   -3.3539  -10.4836 C.2       1 <0>         0.5729
     30 O3         -0.4741   -3.0694  -11.5767 O.2       1 <0>        -0.5315
     31 N6          0.8664   -4.3585  -10.3621 N.am      1 <0>        -0.7287
     32 C22         1.2916   -5.1077  -11.5470 C.3       1 <0>         0.1369
     33 C23         0.2933   -6.2350  -11.8257 C.3       1 <0>        -0.1624
     34 C24         0.7850   -7.0619  -13.0156 C.3       1 <0>        -0.0031
     35 N7          2.1001   -7.6361  -12.7070 N.4       1 <0>        -0.3863
     36 C25         3.0792   -6.5606  -12.5092 C.3       1 <0>        -0.0016
     37 C26         2.6758   -5.7145  -11.2997 C.3       1 <0>        -0.1573
     38 C27         2.5328   -8.4915  -13.8202 C.3       1 <0>        -0.0473
     39 C28        -1.3445   -4.2686   -0.8484 C.3       1 <0>         0.0689
     40 H2          1.0773    1.8641   -0.0153 H         1 <0>         0.0621
     41 H3         -0.4780    1.8715   -0.8809 H         1 <0>         0.0655
     42 H4         -0.4499    1.8623    0.8989 H         1 <0>         0.0601
     43 H5          0.5453   -0.3871   -0.9085 H         1 <0>         0.0662
     44 H6          0.5733   -0.3962    0.8712 H         1 <0>         0.0854
     45 H7         -0.9044   -3.9947   -3.3316 H         1 <0>         0.1739
     46 H8         -3.0972    1.4211   -0.2634 H         1 <0>         0.0954
     47 H9         -4.2822   -0.3630   -2.3873 H         1 <0>         0.0650
     48 H10        -5.0580    0.3498   -0.9381 H         1 <0>         0.0683
     49 H11        -5.6180    1.3869   -3.3630 H         1 <0>         0.0658
     50 H12        -5.3032    2.5038   -1.9941 H         1 <0>         0.0688
     51 H13        -3.3656    1.5888   -4.1905 H         1 <0>         0.0710
     52 H14        -3.6930    3.2566   -3.6237 H         1 <0>         0.0618
     53 H15        -2.3528    3.0083   -1.7297 H         1 <0>         0.0644
     54 H16        -1.5660    1.7363   -2.7065 H         1 <0>         0.0860
     55 H17        -1.9819    0.4369   -6.0031 H         1 <0>         0.4305
     56 H18         0.0650   -2.4733   -5.9494 H         1 <0>         0.1660
     57 H19         0.7779   -3.7303   -7.9351 H         1 <0>         0.1257
     58 H20        -1.7760   -1.3023  -10.3850 H         1 <0>         0.1453
     59 H21        -2.3427    0.7054  -10.3749 H         1 <0>         0.0587
     60 H22        -3.6719   -0.4507  -10.1202 H         1 <0>         0.0582
     61 H23        -3.8830    1.2600   -9.6760 H         1 <0>         0.1059
     62 H24         1.2255   -4.5855   -9.4901 H         1 <0>         0.4066
     63 H25         1.3355   -4.4376  -12.4056 H         1 <0>         0.1061
     64 H26         0.2119   -6.8747  -10.9468 H         1 <0>         0.0915
     65 H27        -0.6825   -5.8081  -12.0575 H         1 <0>         0.1179
     66 H28         0.0764   -7.8653  -13.2169 H         1 <0>         0.1346
     67 H29         0.8658   -6.4214  -13.8939 H         1 <0>         0.1319
     68 H30         4.0644   -6.9939  -12.3365 H         1 <0>         0.1368
     69 H31         3.1111   -5.9308  -13.3983 H         1 <0>         0.1326
     70 H32         3.4030   -4.9154  -11.1556 H         1 <0>         0.1204
     71 H33         2.6439   -6.3433  -10.4100 H         1 <0>         0.0952
     72 H34         2.6002   -7.8963  -14.7308 H         1 <0>         0.1226
     73 H35         3.5093   -8.9185  -13.5920 H         1 <0>         0.1247
     74 H36         1.8097   -9.2944  -13.9637 H         1 <0>         0.1247
     75 H37        -1.3057   -4.5374    0.2072 H         1 <0>         0.0991
     76 H38        -2.2315   -4.7097   -1.3033 H         1 <0>         0.0713
     77 H39        -0.4534   -4.6436   -1.3519 H         1 <0>         0.0704
     78 H40         2.0353   -8.1895  -11.8658 H         1 <0>         0.4249
@<TRIPOS>BOND
     1    1    2 1
     2    1   40 1
     3    1   41 1
     4    1   42 1
     5    2    3 1
     6    2   43 1
     7    2   44 1
     8    3    4 1
     9    3   14 1
    10    3    5 1
    11    5    6 2
    12    5    7 am
    13    7    8 1
    14    7   39 1
    15    8   13 ar
    16    8    9 ar
    17    9   10 ar
    18    9   45 1
    19   10   11 ar
    20   11   12 ar
    21   11   20 1
    22   12   13 ar
    23   13   14 1
    24   14   15 1
    25   15   19 1
    26   15   16 1
    27   15   46 1
    28   16   17 1
    29   16   47 1
    30   16   48 1
    31   17   18 1
    32   17   49 1
    33   17   50 1
    34   18   19 1
    35   18   51 1
    36   18   52 1
    37   19   53 1
    38   19   54 1
    39   20   21 1
    40   20   55 1
    41   21   26 ar
    42   21   22 ar
    43   22   23 ar
    44   22   56 1
    45   23   24 ar
    46   23   57 1
    47   24   25 ar
    48   24   29 1
    49   25   26 ar
    50   25   58 1
    51   26   27 1
    52   27   28 1
    53   28   59 1
    54   28   60 1
    55   28   61 1
    56   29   30 2
    57   29   31 am
    58   31   32 1
    59   31   62 1
    60   32   37 1
    61   32   33 1
    62   32   63 1
    63   33   34 1
    64   33   64 1
    65   33   65 1
    66   34   35 1
    67   34   66 1
    68   34   67 1
    69   35   36 1
    70   35   38 1
    71   35   78 1
    72   36   37 1
    73   36   68 1
    74   36   69 1
    75   37   70 1
    76   37   71 1
    77   38   72 1
    78   38   73 1
    79   38   74 1
    80   39   75 1
    81   39   76 1
    82   39   77 1
@<TRIPOS>MOLECULE
CHEMBL477408
   49    50     0     0     0
SMALL
USER_CHARGES

@<TRIPOS>ATOM
      1 C1         -0.6517   -1.1034   -0.7362 C.3       1 <0>        -0.1706
      2 C2          0.0479    0.0468   -0.0094 C.3       1 <0>         0.0681
      3 N1          0.7386   -0.4715    1.1740 N.am      1 <0>        -0.5481
      4 C3          2.0289   -0.7629    1.0838 C.2       1 <0>         0.5318
      5 O1          2.6753   -0.6229    0.0678 O.2       1 <0>        -0.4416
      6 C4          2.6164   -1.2904    2.3845 C.3       1 <0>        -0.1739
      7 S1          1.1238   -1.2380    3.4566 S.3       1 <0>         0.1589
      8 C5          0.0311   -0.6317    2.3312 C.2       1 <0>         0.2194
      9 C6         -1.3219   -0.3524    2.5367 C.2       1 <0>        -0.1615
     10 C7         -2.1518    0.0212    1.4312 C.1       1 <0>         0.2690
     11 N2         -2.8102    0.3175    0.5542 N.1       1 <0>        -0.4027
     12 C8         -1.8734   -0.4388    3.8397 C.2       1 <0>         0.5361
     13 O2         -1.1681   -0.7562    4.7792 O.2       1 <0>        -0.5008
     14 O3         -3.1806   -0.1689    4.0382 O.3       1 <0>        -0.3394
     15 C9         -3.6690   -0.2757    5.3769 C.3       1 <0>         0.0967
     16 C10        -5.1379    0.0597    5.4040 C.2       1 <0>        -0.1632
     17 C11        -5.9693   -0.6930    6.0810 C.2       1 <0>        -0.1644
     18 C12         3.7134   -0.3647    2.9142 C.3       1 <0>         0.1524
     19 N3          4.2501   -0.9087    4.1641 N.pl3     1 <0>        -0.7366
     20 C13         5.2635   -0.2367    4.8353 C.ar      1 <0>         0.2499
     21 C14         5.7642    0.9574    4.3213 C.ar      1 <0>        -0.2106
     22 C15         6.7607    1.6210    4.9777 C.ar      1 <0>        -0.0080
     23 C16         7.2794    1.0996    6.1703 C.ar      1 <0>        -0.2327
     24 C17         6.7725   -0.1014    6.6840 C.ar      1 <0>        -0.0221
     25 C18         5.7723   -0.7558    6.0238 C.ar      1 <0>        -0.2036
     26 C19         8.3508    1.8091    6.8791 C.2       1 <0>         0.3977
     27 O4          8.7195    2.8969    6.4887 O.2       1 <0>        -0.4704
     28 C20         8.9929    1.1864    8.0919 C.3       1 <0>        -0.2029
     29 H1         -1.3760   -1.5687   -0.0676 H         1 <0>         0.0638
     30 H2         -1.1656   -0.7178   -1.6167 H         1 <0>         0.0869
     31 H3          0.0879   -1.8433   -1.0422 H         1 <0>         0.0661
     32 H4          0.7721    0.5121   -0.6780 H         1 <0>         0.1111
     33 H5         -0.6918    0.7867    0.2966 H         1 <0>         0.1025
     34 H6          2.9842   -2.3098    2.2679 H         1 <0>         0.1734
     35 H7         -3.5221   -1.2940    5.7371 H         1 <0>         0.0777
     36 H8         -3.1259    0.4184    6.0183 H         1 <0>         0.0824
     37 H9         -5.5053    0.9206    4.8652 H         1 <0>         0.1209
     38 H10        -7.0221   -0.4526    6.1004 H         1 <0>         0.1097
     39 H11        -5.6020   -1.5539    6.6198 H         1 <0>         0.1014
     40 H12         4.5132   -0.2903    2.1773 H         1 <0>         0.0974
     41 H13         3.2959    0.6252    3.0984 H         1 <0>         0.0831
     42 H14         3.8977   -1.7381    4.5228 H         1 <0>         0.4056
     43 H15         5.3638    1.3586    3.4020 H         1 <0>         0.1263
     44 H16         7.1488    2.5463    4.5781 H         1 <0>         0.1327
     45 H17         7.1698   -0.5070    7.6028 H         1 <0>         0.1352
     46 H18         5.3780   -1.6793    6.4213 H         1 <0>         0.1293
     47 H19         8.4749    0.2606    8.3423 H         1 <0>         0.0819
     48 H20        10.0398    0.9706    7.8782 H         1 <0>         0.0939
     49 H21         8.9286    1.8775    8.9323 H         1 <0>         0.0917
@<TRIPOS>BOND
     1    1    2 1
     2    1   29 1
     3    1   30 1
     4    1   31 1
     5    2    3 1
     6    2   32 1
     7    2   33 1
     8    3    8 1
     9    3    4 am
    10    4    5 2
    11    4    6 1
    12    6    7 1
    13    6   18 1
    14    6   34 1
    15    7    8 1
    16    8    9 2
    17    9   10 1
    18    9   12 1
    19   10   11 3
    20   12   13 2
    21   12   14 1
    22   14   15 1
    23   15   16 1
    24   15   35 1
    25   15   36 1
    26   16   17 2
    27   16   37 1
    28   17   38 1
    29   17   39 1
    30   18   19 1
    31   18   40 1
    32   18   41 1
    33   19   20 1
    34   19   42 1
    35   20   25 ar
    36   20   21 ar
    37   21   22 ar
    38   21   43 1
    39   22   23 ar
    40   22   44 1
    41   23   24 ar
    42   23   26 1
    43   24   25 ar
    44   24   45 1
    45   25   46 1
    46   26   27 2
    47   26   28 1
    48   28   47 1
    49   28   48 1
    50   28   49 1
@<TRIPOS>MOLECULE
CHEMBL477408__1
   49    50     0     0     0
SMALL
USER_CHARGES

@<TRIPOS>ATOM
      1 C1         -0.7218   -1.0922   -0.6752 C.3       1 <0>        -0.1707
      2 C2         -0.0124    0.0564    0.0448 C.3       1 <0>         0.0682
      3 N1          0.6951   -0.4649    1.2169 N.am      1 <0>        -0.5482
      4 C3          1.9841   -0.7555    1.1077 C.2       1 <0>         0.5317
      5 O1          2.6161   -0.6125    0.0830 O.2       1 <0>        -0.4416
      6 C4          2.5902   -1.2863    2.3986 C.3       1 <0>        -0.1741
      7 S1          1.1129   -1.2375    3.4917 S.3       1 <0>         0.1593
      8 C5          0.0041   -0.6285    2.3836 C.2       1 <0>         0.2194
      9 C6         -1.3459   -0.3504    2.6089 C.2       1 <0>        -0.1616
     10 C7         -2.1916    0.0258    1.5163 C.1       1 <0>         0.2690
     11 N2         -2.8624    0.3243    0.6495 N.1       1 <0>        -0.4026
     12 C8         -1.8790   -0.4406    3.9193 C.2       1 <0>         0.5362
     13 O2         -1.1603   -0.7603    4.8479 O.2       1 <0>        -0.5013
     14 O3         -3.1833   -0.1718    4.1370 O.3       1 <0>        -0.3393
     15 C9         -3.6527   -0.2825    5.4822 C.3       1 <0>         0.0967
     16 C10        -5.1213    0.0522    5.5309 C.2       1 <0>        -0.1634
     17 C11        -5.9427   -0.7027    6.2176 C.2       1 <0>        -0.1641
     18 C12         3.1047   -2.7165    2.2237 C.3       1 <0>         0.1525
     19 N3          3.6784   -3.1870    3.4869 N.pl3     1 <0>        -0.7369
     20 C13         4.2128   -4.4661    3.5731 C.ar      1 <0>         0.2496
     21 C14         4.2074   -5.2979    2.4556 C.ar      1 <0>        -0.2106
     22 C15         4.7314   -6.5562    2.5361 C.ar      1 <0>        -0.0080
     23 C16         5.2754   -7.0103    3.7448 C.ar      1 <0>        -0.2326
     24 C17         5.2792   -6.1702    4.8661 C.ar      1 <0>        -0.0221
     25 C18         4.7578   -4.9115    4.7754 C.ar      1 <0>        -0.2036
     26 C19         5.8392   -8.3621    3.8362 C.2       1 <0>         0.3977
     27 O4          5.9264   -9.0515    2.8418 O.2       1 <0>        -0.4703
     28 C20         6.3099   -8.8939    5.1654 C.3       1 <0>        -0.2029
     29 H1         -1.4363   -1.5597    0.0023 H         1 <0>         0.0639
     30 H2         -1.2483   -0.7044   -1.5473 H         1 <0>         0.0869
     31 H3          0.0137   -1.8309   -0.9936 H         1 <0>         0.0664
     32 H4          0.7021    0.5238   -0.6327 H         1 <0>         0.1110
     33 H5         -0.7480    0.7950    0.3633 H         1 <0>         0.1023
     34 H6          3.3767   -0.6275    2.7666 H         1 <0>         0.1733
     35 H7         -3.5004   -1.3017    5.8375 H         1 <0>         0.0778
     36 H8         -3.1009    0.4101    6.1177 H         1 <0>         0.0823
     37 H9         -5.4965    0.9144    4.9997 H         1 <0>         0.1209
     38 H10        -6.9951   -0.4628    6.2525 H         1 <0>         0.1097
     39 H11        -5.5675   -1.5649    6.7487 H         1 <0>         0.1015
     40 H12         2.2790   -3.3669    1.9350 H         1 <0>         0.0828
     41 H13         3.8701   -2.7350    1.4478 H         1 <0>         0.0976
     42 H14         3.6850   -2.6053    4.2630 H         1 <0>         0.4059
     43 H15         3.7879   -4.9471    1.5243 H         1 <0>         0.1262
     44 H16         4.7262   -7.2007    1.6695 H         1 <0>         0.1327
     45 H17         5.6972   -6.5164    5.7998 H         1 <0>         0.1353
     46 H18         4.7643   -4.2617    5.6380 H         1 <0>         0.1295
     47 H19         6.2368   -8.1084    5.9175 H         1 <0>         0.0819
     48 H20         5.6869   -9.7383    5.4601 H         1 <0>         0.0941
     49 H21         7.3466   -9.2197    5.0798 H         1 <0>         0.0916
@<TRIPOS>BOND
     1    1    2 1
     2    1   29 1
     3    1   30 1
     4    1   31 1
     5    2    3 1
     6    2   32 1
     7    2   33 1
     8    3    8 1
     9    3    4 am
    10    4    5 2
    11    4    6 1
    12    6    7 1
    13    6   18 1
    14    6   34 1
    15    7    8 1
    16    8    9 2
    17    9   10 1
    18    9   12 1
    19   10   11 3
    20   12   13 2
    21   12   14 1
    22   14   15 1
    23   15   16 1
    24   15   35 1
    25   15   36 1
    26   16   17 2
    27   16   37 1
    28   17   38 1
    29   17   39 1
    30   18   19 1
    31   18   40 1
    32   18   41 1
    33   19   20 1
    34   19   42 1
    35   20   25 ar
    36   20   21 ar
    37   21   22 ar
    38   21   43 1
    39   22   23 ar
    40   22   44 1
    41   23   24 ar
    42   23   26 1
    43   24   25 ar
    44   24   45 1
    45   25   46 1
    46   26   27 2
    47   26   28 1
    48   28   47 1
    49   28   48 1
    50   28   49 1
@<TRIPOS>MOLECULE
CHEMBL560014
   43    46     0     0     0
SMALL
USER_CHARGES

@<TRIPOS>ATOM
      1 C1         -0.0495    1.2642    0.3532 C.3       1 <0>        -0.1756
      2 C2         -0.0158   -0.2367    0.0585 C.3       1 <0>         0.1167
      3 H1          0.5037   -0.7538    0.8652 H         1 <0>         0.0905
      4 C3         -1.4252   -0.7596   -0.0477 C.ar      1 <0>        -0.0832
      5 C4         -2.0299   -0.8707   -1.2858 C.ar      1 <0>        -0.0767
      6 C5         -3.3226   -1.3502   -1.3833 C.ar      1 <0>        -0.1141
      7 C6         -4.0116   -1.7190   -0.2427 C.ar      1 <0>        -0.1022
      8 C7         -3.4082   -1.6084    0.9955 C.ar      1 <0>        -0.1113
      9 C8         -2.1121   -1.1337    1.0933 C.ar      1 <0>        -0.0269
     10 Cl1        -1.3510   -1.0006    2.6479 Cl        1 <0>        -0.0669
     11 O1          0.6709   -0.4649   -1.1737 O.3       1 <0>        -0.2629
     12 C9          2.0249   -0.5528   -1.1177 C.2       1 <0>         0.2068
     13 C10         2.6945   -0.3147    0.0526 C.2       1 <0>        -0.2456
     14 C11         4.0798   -0.4166    0.0609 C.2       1 <0>         0.0077
     15 S1          4.4391   -0.8603   -1.6303 S.3       1 <0>         0.1017
     16 C12         2.7654   -0.8934   -2.2501 C.2       1 <0>        -0.2961
     17 C13         2.3081   -1.1869   -3.5535 C.2       1 <0>         0.6132
     18 O2          1.1153   -1.1595   -3.8012 O.2       1 <0>        -0.5232
     19 N1          3.1908   -1.4973   -4.5234 N.am      1 <0>        -0.8559
     20 C14         5.0113   -0.2110    1.1764 C.2       1 <0>        -0.0304
     21 C15         4.6799    0.0337    2.4945 C.2       1 <0>         0.1075
     22 N2          5.8043    0.1612    3.1894 N.2       1 <0>        -0.4846
     23 C16         6.8492    0.0104    2.3821 C.2       1 <0>         0.2454
     24 N3          6.3888   -0.2301    1.1146 N.pl3     1 <0>        -0.3486
     25 C17         7.2609   -0.4286    0.0863 C.2       1 <0>         0.0520
     26 C18         8.5945   -0.3952    0.2993 C.2       1 <0>        -0.1265
     27 C19         9.0982   -0.1551    1.5871 C.2       1 <0>        -0.0897
     28 C20         8.2360    0.0530    2.6204 C.2       1 <0>        -0.0781
     29 H2          0.9699    1.6424    0.4300 H         1 <0>         0.0702
     30 H3         -0.5691    1.7813   -0.4535 H         1 <0>         0.0742
     31 H4         -0.5734    1.4383    1.2931 H         1 <0>         0.0798
     32 H5         -1.4923   -0.5825   -2.1770 H         1 <0>         0.1453
     33 H6         -3.7948   -1.4366   -2.3508 H         1 <0>         0.1326
     34 H7         -5.0218   -2.0933   -0.3195 H         1 <0>         0.1343
     35 H8         -3.9466   -1.8962    1.8864 H         1 <0>         0.1367
     36 H9          2.1562   -0.0525    0.9514 H         1 <0>         0.1567
     37 H10         4.1403   -1.5192   -4.3262 H         1 <0>         0.3958
     38 H11         2.8767   -1.6989   -5.4187 H         1 <0>         0.4079
     39 H12         3.6785    0.1088    2.8918 H         1 <0>         0.1921
     40 H13         6.8824   -0.6147   -0.9079 H         1 <0>         0.1604
     41 H14         9.2753   -0.5540   -0.5240 H         1 <0>         0.1595
     42 H15        10.1645   -0.1293    1.7566 H         1 <0>         0.1514
     43 H16         8.6126    0.2370    3.6158 H         1 <0>         0.1599
@<TRIPOS>BOND
     1    1    2 1
     2    1   29 1
     3    1   30 1
     4    1   31 1
     5    2    3 1
     6    2    4 1
     7    2   11 1
     8    4    9 ar
     9    4    5 ar
    10    5    6 ar
    11    5   32 1
    12    6    7 ar
    13    6   33 1
    14    7    8 ar
    15    7   34 1
    16    8    9 ar
    17    8   35 1
    18    9   10 1
    19   11   12 1
    20   12   16 2
    21   12   13 1
    22   13   14 2
    23   13   36 1
    24   14   15 1
    25   14   20 1
    26   15   16 1
    27   16   17 1
    28   17   18 2
    29   17   19 am
    30   19   37 1
    31   19   38 1
    32   20   24 1
    33   20   21 2
    34   21   22 1
    35   21   39 1
    36   22   23 2
    37   23   28 1
    38   23   24 1
    39   24   25 1
    40   25   26 2
    41   25   40 1
    42   26   27 1
    43   26   41 1
    44   27   28 2
    45   27   42 1
    46   28   43 1
@<TRIPOS>MOLECULE
CHEMBL560014__1
   44    47     0     0     0
SMALL
USER_CHARGES

@<TRIPOS>ATOM
      1 C1          0.3001    1.2717   -0.1333 C.3       1 <0>        -0.1777
      2 C2          0.0658   -0.2352   -0.0099 C.3       1 <0>         0.1195
      3 H1          0.5176   -0.7441   -0.8614 H         1 <0>         0.0878
      4 C3          0.6913   -0.7381    1.2656 C.ar      1 <0>        -0.0914
      5 C4         -0.0757   -0.8645    2.4087 C.ar      1 <0>        -0.0766
      6 C5          0.4979   -1.3257    3.5786 C.ar      1 <0>        -0.1107
      7 C6          1.8390   -1.6608    3.6064 C.ar      1 <0>        -0.0964
      8 C7          2.6068   -1.5349    2.4644 C.ar      1 <0>        -0.1089
      9 C8          2.0318   -1.0786    1.2913 C.ar      1 <0>        -0.0254
     10 Cl1         2.9941   -0.9263   -0.1455 Cl        1 <0>        -0.0723
     11 O1         -1.3386   -0.4987    0.0122 O.3       1 <0>        -0.2567
     12 C9         -1.9645   -0.6065   -1.1881 C.2       1 <0>         0.1838
     13 C10        -1.2918   -0.3555   -2.3539 C.2       1 <0>        -0.1814
     14 C11        -1.9744   -0.4788   -3.5575 C.2       1 <0>        -0.0904
     15 S1         -3.6070   -0.9617   -3.0216 S.3       1 <0>         0.1532
     16 C12        -3.3064   -0.9812   -1.2621 C.2       1 <0>        -0.2451
     17 C13        -4.1990   -1.2935   -0.2134 C.2       1 <0>         0.6035
     18 O2         -3.8181   -1.2525    0.9434 O.2       1 <0>        -0.5028
     19 N1         -5.4722   -1.6370   -0.4919 N.am      1 <0>        -0.8499
     20 C14        -1.4792   -0.2654   -4.9226 C.2       1 <0>         0.0796
     21 C15        -0.1785    0.0106   -5.2955 C.2       1 <0>         0.1094
     22 N2         -0.1419    0.1345   -6.6171 N.pl3     1 <0>        -0.4951
     23 C16        -1.3593   -0.0487   -7.1178 C.cat     1 <0>         0.3058
     24 N3         -2.2205   -0.3073   -6.0846 N.pl3     1 <0>        -0.3221
     25 C17        -3.5417   -0.5399   -6.3251 C.2       1 <0>         0.0804
     26 C18        -4.0246   -0.5230   -7.5867 C.2       1 <0>        -0.0989
     27 C19        -3.1673   -0.2651   -8.6676 C.2       1 <0>        -0.0150
     28 C20        -1.8470   -0.0230   -8.4382 C.2       1 <0>        -0.1159
     29 H2          1.3713    1.4726   -0.1502 H         1 <0>         0.0836
     30 H3         -0.1523    1.6354   -1.0559 H         1 <0>         0.0658
     31 H4         -0.1517    1.7806    0.7181 H         1 <0>         0.0795
     32 H5         -1.1232   -0.6026    2.3877 H         1 <0>         0.1452
     33 H6         -0.1017   -1.4240    4.4715 H         1 <0>         0.1356
     34 H7          2.2867   -2.0208    4.5210 H         1 <0>         0.1379
     35 H8          3.6544   -1.7964    2.4863 H         1 <0>         0.1391
     36 H9         -0.2512   -0.0670   -2.3380 H         1 <0>         0.1628
     37 H10        -5.7753   -1.6697   -1.4127 H         1 <0>         0.3960
     38 H11        -6.0853   -1.8515    0.2285 H         1 <0>         0.4151
     39 H12         0.6641    0.1093   -4.6271 H         1 <0>         0.2363
     40 H13        -4.2087   -0.7399   -5.4996 H         1 <0>         0.1897
     41 H14        -5.0736   -0.7088   -7.7641 H         1 <0>         0.1888
     42 H15        -3.5540   -0.2525   -9.6759 H         1 <0>         0.1806
     43 H16        -1.1780    0.1750   -9.2626 H         1 <0>         0.1852
     44 H17         0.6528    0.3296   -7.1380 H         1 <0>         0.4686
@<TRIPOS>BOND
     1    1    2 1
     2    1   29 1
     3    1   30 1
     4    1   31 1
     5    2    3 1
     6    2    4 1
     7    2   11 1
     8    4    9 ar
     9    4    5 ar
    10    5    6 ar
    11    5   32 1
    12    6    7 ar
    13    6   33 1
    14    7    8 ar
    15    7   34 1
    16    8    9 ar
    17    8   35 1
    18    9   10 1
    19   11   12 1
    20   12   16 2
    21   12   13 1
    22   13   14 2
    23   13   36 1
    24   14   15 1
    25   14   20 1
    26   15   16 1
    27   16   17 1
    28   17   18 2
    29   17   19 am
    30   19   37 1
    31   19   38 1
    32   20   24 1
    33   20   21 2
    34   21   22 1
    35   21   39 1
    36   22   23 2
    37   22   44 1
    38   23   28 1
    39   23   24 1
    40   24   25 1
    41   25   26 2
    42   25   40 1
    43   26   27 1
    44   26   41 1
    45   27   28 2
    46   27   42 1
    47   28   43 1
@<TRIPOS>MOLECULE
CHEMBL242237
   39    41     0     0     0
SMALL
USER_CHARGES

@<TRIPOS>ATOM
      1 C1          0.1054    1.4452    0.9056 C.ar      1 <0>        -0.1184
      2 C2          0.8683    1.1191    2.0158 C.ar      1 <0>        -0.0818
      3 C3          2.0506    0.4228    1.8709 C.ar      1 <0>        -0.1207
      4 C4          2.4846    0.0436    0.6068 C.ar      1 <0>         0.1985
      5 C5          1.7144    0.3723   -0.5193 C.ar      1 <0>        -0.1395
      6 C6          0.5194    1.0773   -0.3559 C.ar      1 <0>        -0.0800
      7 C7          2.1639   -0.0237   -1.8668 C.2       1 <0>         0.5582
      8 O1          3.1740   -0.6875   -2.0001 O.2       1 <0>        -0.5198
      9 N1          1.4552    0.3500   -2.9505 N.am      1 <0>        -0.8512
     10 N2          3.6762   -0.6574    0.4581 N.pl3     1 <0>        -0.6555
     11 C8          4.8443    0.0198    0.1408 C.ar      1 <0>         0.5018
     12 C9          4.8337    1.4047   -0.0394 C.ar      1 <0>        -0.3299
     13 C10         6.0205    2.0372   -0.3545 C.ar      1 <0>         0.2099
     14 N3          7.1263    1.3174   -0.4758 N.ar      1 <0>        -0.5883
     15 C11         7.1070    0.0046   -0.2992 C.ar      1 <0>         0.5968
     16 N4          5.9910   -0.6389    0.0092 N.ar      1 <0>        -0.6104
     17 N5          8.2845   -0.7125   -0.4349 N.pl3     1 <0>        -0.6397
     18 C12         9.4931   -0.0397   -0.6379 C.ar      1 <0>         0.1877
     19 C13         9.7115    1.1947   -0.0384 C.ar      1 <0>        -0.1206
     20 C14        10.9054    1.8594   -0.2395 C.ar      1 <0>        -0.0841
     21 C15        11.8856    1.2991   -1.0369 C.ar      1 <0>        -0.1643
     22 C16        11.6731    0.0666   -1.6381 C.ar      1 <0>         0.1246
     23 C17        10.4787   -0.6065   -1.4339 C.ar      1 <0>        -0.1791
     24 O2         12.6375   -0.4825   -2.4225 O.3       1 <0>        -0.4984
     25 H1         -0.8208    1.9866    1.0304 H         1 <0>         0.1358
     26 H2          0.5354    1.4123    3.0005 H         1 <0>         0.1362
     27 H3          2.6394    0.1725    2.7410 H         1 <0>         0.1365
     28 H4         -0.0792    1.3337   -1.2175 H         1 <0>         0.1323
     29 H5          0.6494    0.8795   -2.8441 H         1 <0>         0.3999
     30 H6          1.7508    0.0896   -3.8368 H         1 <0>         0.4068
     31 H7          3.6906   -1.6201    0.5763 H         1 <0>         0.4180
     32 H8          3.9183    1.9683    0.0649 H         1 <0>         0.1343
     33 H9          6.0468    3.1069   -0.5008 H         1 <0>         0.1669
     34 H10         8.2704   -1.6813   -0.3890 H         1 <0>         0.4225
     35 H11         8.9471    1.6348    0.5848 H         1 <0>         0.1373
     36 H12        11.0733    2.8189    0.2269 H         1 <0>         0.1295
     37 H13        12.8180    1.8215   -1.1925 H         1 <0>         0.1280
     38 H14        10.3134   -1.5681   -1.8971 H         1 <0>         0.1296
     39 H15        13.2610   -1.0453   -1.9434 H         1 <0>         0.3907
@<TRIPOS>BOND
     1    1    6 ar
     2    1    2 ar
     3    1   25 1
     4    2    3 ar
     5    2   26 1
     6    3    4 ar
     7    3   27 1
     8    4    5 ar
     9    4   10 1
    10    5    6 ar
    11    5    7 1
    12    6   28 1
    13    7    8 2
    14    7    9 am
    15    9   29 1
    16    9   30 1
    17   10   11 1
    18   10   31 1
    19   11   16 ar
    20   11   12 ar
    21   12   13 ar
    22   12   32 1
    23   13   14 ar
    24   13   33 1
    25   14   15 ar
    26   15   16 ar
    27   15   17 1
    28   17   18 1
    29   17   34 1
    30   18   23 ar
    31   18   19 ar
    32   19   20 ar
    33   19   35 1
    34   20   21 ar
    35   20   36 1
    36   21   22 ar
    37   21   37 1
    38   22   23 ar
    39   22   24 1
    40   23   38 1
    41   24   39 1
@<TRIPOS>MOLECULE
CHEMBL552348
   61    65     0     0     0
SMALL
USER_CHARGES

@<TRIPOS>ATOM
      1 C1          0.2924    1.2790   -0.1308 C.3       1 <0>        -0.1757
      2 C2          0.0646   -0.2292   -0.0104 C.3       1 <0>         0.1159
      3 H1          0.5180   -0.7343   -0.8632 H         1 <0>         0.0910
      4 C3          0.6932   -0.7320    1.2636 C.ar      1 <0>        -0.0780
      5 C4         -0.0724   -0.8641    2.4070 C.ar      1 <0>        -0.0743
      6 C5          0.5040   -1.3253    3.5755 C.ar      1 <0>        -0.1111
      7 C6          1.8466   -1.6547    3.6017 C.ar      1 <0>        -0.0683
      8 C7          2.6130   -1.5230    2.4593 C.ar      1 <0>        -0.0872
      9 C8          2.0352   -1.0668    1.2876 C.ar      1 <0>        -0.0255
     10 Cl1         2.9958   -0.9074   -0.1496 Cl        1 <0>        -0.0633
     11 C9          2.4744   -2.1570    4.8763 C.3       1 <0>         0.0991
     12 N1          2.3662   -3.6210    4.9316 N.3       1 <0>        -0.5532
     13 C10         0.9647   -4.0417    4.9959 C.3       1 <0>         0.0525
     14 C11         0.8472   -5.5215    4.6159 C.3       1 <0>        -0.5941
     15 S1          1.7845   -6.5054    5.8248 S.o2      1 <0>         2.4085
     16 O1          1.9544   -7.8175    5.3065 O.2       1 <0>        -0.9399
     17 O2          1.1902   -6.3364    7.1045 O.2       1 <0>        -0.9377
     18 C12         3.3973   -5.6646    5.8143 C.3       1 <0>        -0.5961
     19 C13         3.1667   -4.1653    6.0308 C.3       1 <0>         0.0642
     20 O3         -1.3386   -0.4987    0.0122 O.3       1 <0>        -0.2631
     21 C14        -1.9649   -0.6067   -1.1879 C.2       1 <0>         0.2070
     22 C15        -1.2942   -0.3504   -2.3536 C.2       1 <0>        -0.2464
     23 C16        -1.9771   -0.4741   -3.5570 C.2       1 <0>         0.0085
     24 S2         -3.6073   -0.9651   -3.0209 S.3       1 <0>         0.1025
     25 C17        -3.3053   -0.9869   -1.2617 C.2       1 <0>        -0.2963
     26 C18        -4.1957   -1.3053   -0.2129 C.2       1 <0>         0.6136
     27 O4         -3.8142   -1.2651    0.9436 O.2       1 <0>        -0.5239
     28 N2         -5.4676   -1.6537   -0.4912 N.am      1 <0>        -0.8560
     29 C19        -1.4839   -0.2557   -4.9220 C.2       1 <0>        -0.0311
     30 C20        -0.1846    0.0268   -5.2952 C.2       1 <0>         0.1079
     31 N3         -0.1495    0.1535   -6.6166 N.2       1 <0>        -0.4845
     32 C21        -1.3665   -0.0338   -7.1169 C.2       1 <0>         0.2457
     33 N4         -2.2259   -0.2983   -6.0835 N.pl3     1 <0>        -0.3484
     34 C22        -3.5462   -0.5360   -6.3236 C.2       1 <0>         0.0518
     35 C23        -4.0301   -0.5185   -7.5848 C.2       1 <0>        -0.1261
     36 C24        -3.1747   -0.2547   -8.6657 C.2       1 <0>        -0.0895
     37 C25        -1.8553   -0.0074   -8.4368 C.2       1 <0>        -0.0781
     38 H2          1.3627    1.4846   -0.1480 H         1 <0>         0.0800
     39 H3         -0.1623    1.6427   -1.0523 H         1 <0>         0.0705
     40 H4         -0.1610    1.7842    0.7221 H         1 <0>         0.0742
     41 H5         -1.1210   -0.6066    2.3873 H         1 <0>         0.1469
     42 H6         -0.0944   -1.4280    4.4687 H         1 <0>         0.1316
     43 H7          3.6618   -1.7801    2.4799 H         1 <0>         0.1388
     44 H8          3.5254   -1.8691    4.9016 H         1 <0>         0.0959
     45 H9          1.9578   -1.7219    5.7318 H         1 <0>         0.0585
     46 H10         0.5893   -3.8970    6.0090 H         1 <0>         0.0624
     47 H11         0.3744   -3.4419    4.3032 H         1 <0>         0.1069
     48 H12        -0.2005   -5.8218    4.6330 H         1 <0>         0.1399
     49 H13         1.2592   -5.6772    3.6189 H         1 <0>         0.1423
     50 H14         4.0208   -6.0588    6.6168 H         1 <0>         0.1403
     51 H15         3.8874   -5.8248    4.8540 H         1 <0>         0.1433
     52 H16         4.1280   -3.6526    6.0671 H         1 <0>         0.1020
     53 H17         2.6401   -4.0122    6.9727 H         1 <0>         0.0624
     54 H18        -0.2548   -0.0574   -2.3379 H         1 <0>         0.1566
     55 H19        -5.7713   -1.6857   -1.4119 H         1 <0>         0.3960
     56 H20        -6.0793   -1.8724    0.2291 H         1 <0>         0.4080
     57 H21         0.6580    0.1276   -4.6272 H         1 <0>         0.1920
     58 H22        -4.2117   -0.7407   -5.4980 H         1 <0>         0.1603
     59 H23        -5.0784   -0.7085   -7.7618 H         1 <0>         0.1596
     60 H24        -3.5623   -0.2416   -9.6737 H         1 <0>         0.1516
     61 H25        -1.1877    0.1952   -9.2613 H         1 <0>         0.1600
@<TRIPOS>BOND
     1    1    2 1
     2    1   38 1
     3    1   39 1
     4    1   40 1
     5    2    3 1
     6    2    4 1
     7    2   20 1
     8    4    9 ar
     9    4    5 ar
    10    5    6 ar
    11    5   41 1
    12    6    7 ar
    13    6   42 1
    14    7    8 ar
    15    7   11 1
    16    8    9 ar
    17    8   43 1
    18    9   10 1
    19   11   12 1
    20   11   44 1
    21   11   45 1
    22   12   19 1
    23   12   13 1
    24   13   14 1
    25   13   46 1
    26   13   47 1
    27   14   15 1
    28   14   48 1
    29   14   49 1
    30   15   16 2
    31   15   17 2
    32   15   18 1
    33   18   19 1
    34   18   50 1
    35   18   51 1
    36   19   52 1
    37   19   53 1
    38   20   21 1
    39   21   25 2
    40   21   22 1
    41   22   23 2
    42   22   54 1
    43   23   24 1
    44   23   29 1
    45   24   25 1
    46   25   26 1
    47   26   27 2
    48   26   28 am
    49   28   55 1
    50   28   56 1
    51   29   33 1
    52   29   30 2
    53   30   31 1
    54   30   57 1
    55   31   32 2
    56   32   37 1
    57   32   33 1
    58   33   34 1
    59   34   35 2
    60   34   58 1
    61   35   36 1
    62   35   59 1
    63   36   37 2
    64   36   60 1
    65   37   61 1
@<TRIPOS>MOLECULE
CHEMBL552348__1
   62    66     0     0     0
SMALL
USER_CHARGES

@<TRIPOS>ATOM
      1 C1         -0.2902    1.2714   -0.1875 C.3       1 <0>        -0.1778
      2 C2         -0.0343   -0.2303   -0.0452 C.3       1 <0>         0.1188
      3 H1         -0.9866   -0.7594   -0.0096 H         1 <0>         0.0882
      4 C3          0.7673   -0.7173   -1.2248 C.ar      1 <0>        -0.0869
      5 C4          2.1431   -0.8146   -1.1329 C.ar      1 <0>        -0.0740
      6 C5          2.8784   -1.2613   -2.2147 C.ar      1 <0>        -0.1085
      7 C6          2.2384   -1.6110   -3.3893 C.ar      1 <0>        -0.0607
      8 C7          0.8630   -1.5141   -3.4824 C.ar      1 <0>        -0.0856
      9 C8          0.1259   -1.0724   -2.3978 C.ar      1 <0>        -0.0237
     10 Cl1        -1.6025   -0.9568   -2.5117 Cl        1 <0>        -0.0690
     11 C9          3.0409   -2.0974   -4.5685 C.3       1 <0>         0.0957
     12 N1          3.1796   -3.5581   -4.4973 N.3       1 <0>        -0.5533
     13 C10         3.9462   -3.9555   -3.3143 C.3       1 <0>         0.0525
     14 C11         3.7130   -5.4406   -3.0173 C.3       1 <0>        -0.5956
     15 S1          4.3160   -6.4146   -4.4300 S.o2      1 <0>         2.4087
     16 O1          3.8154   -7.7394   -4.3135 O.2       1 <0>        -0.9381
     17 O2          5.7167   -6.2109   -4.5557 O.2       1 <0>        -0.9351
     18 C12         3.4799   -5.5995   -5.8245 C.3       1 <0>        -0.5963
     19 C13         3.7449   -4.0927   -5.7383 C.3       1 <0>         0.0636
     20 O3          0.6932   -0.4774    1.1597 O.3       1 <0>        -0.2569
     21 C14        -0.0301   -0.5996    2.3025 C.2       1 <0>         0.1839
     22 C15        -1.3810   -0.3771    2.3036 C.2       1 <0>        -0.1820
     23 C16        -2.0785   -0.5142    3.4970 C.2       1 <0>        -0.0895
     24 S2         -0.7874   -0.9690    4.6426 S.3       1 <0>         0.1538
     25 C17         0.5854   -0.9604    3.5015 C.2       1 <0>        -0.2451
     26 C18         1.9464   -1.2438    3.7495 C.2       1 <0>         0.6039
     27 O4          2.7561   -1.1864    2.8407 O.2       1 <0>        -0.5035
     28 N2          2.3497   -1.5778    4.9914 N.am      1 <0>        -0.8499
     29 C19        -3.5123   -0.3309    3.7516 C.2       1 <0>         0.0790
     30 C20        -4.4919   -0.0762    2.8120 C.2       1 <0>         0.1097
     31 N3         -5.6567    0.0235    3.4418 N.pl3     1 <0>        -0.4951
     32 C21        -5.4770   -0.1548    4.7465 C.cat     1 <0>         0.3060
     33 N4         -4.1462   -0.3851    4.9750 N.pl3     1 <0>        -0.3221
     34 C22        -3.6883   -0.6070    6.2393 C.2       1 <0>         0.0802
     35 C23        -4.5388   -0.6072    7.2889 C.2       1 <0>        -0.0986
     36 C24        -5.9088   -0.3784    7.0876 C.2       1 <0>        -0.0148
     37 C25        -6.3762   -0.1472    5.8296 C.2       1 <0>        -0.1158
     38 H2          0.6621    1.8005   -0.2230 H         1 <0>         0.0795
     39 H3         -0.8451    1.4599   -1.1065 H         1 <0>         0.0837
     40 H4         -0.8699    1.6236    0.6657 H         1 <0>         0.0661
     41 H5          2.6437   -0.5413   -0.2157 H         1 <0>         0.1467
     42 H6          3.9534   -1.3368   -2.1426 H         1 <0>         0.1344
     43 H7          0.3632   -1.7870   -4.4000 H         1 <0>         0.1411
     44 H8          2.5304   -1.8255   -5.4924 H         1 <0>         0.0977
     45 H9          4.0288   -1.6373   -4.5503 H         1 <0>         0.0607
     46 H10         5.0073   -3.7848   -3.4961 H         1 <0>         0.0637
     47 H11         3.6263   -3.3606   -2.4588 H         1 <0>         0.1045
     48 H12         4.2590   -5.7242   -2.1175 H         1 <0>         0.1397
     49 H13         2.6478   -5.6227   -2.8752 H         1 <0>         0.1410
     50 H14         3.8730   -5.9872   -6.7643 H         1 <0>         0.1420
     51 H15         2.4075   -5.7864   -5.7682 H         1 <0>         0.1430
     52 H16         3.2832   -3.5945   -6.5907 H         1 <0>         0.1030
     53 H17         4.8198   -3.9126   -5.7537 H         1 <0>         0.0641
     54 H18        -1.8942   -0.1002    1.3945 H         1 <0>         0.1627
     55 H19         1.7052   -1.6235    5.7148 H         1 <0>         0.3961
     56 H20         3.2846   -1.7725    5.1617 H         1 <0>         0.4152
     57 H21        -4.3371    0.0248    1.7479 H         1 <0>         0.2362
     58 H22        -2.6357   -0.7847    6.4036 H         1 <0>         0.1896
     59 H23        -4.1634   -0.7844    8.2860 H         1 <0>         0.1889
     60 H24        -6.5882   -0.3795    7.9271 H         1 <0>         0.1807
     61 H25        -7.4287    0.0285    5.6630 H         1 <0>         0.1853
     62 H26        -6.5093    0.2003    3.0144 H         1 <0>         0.4687
@<TRIPOS>BOND
     1    1    2 1
     2    1   38 1
     3    1   39 1
     4    1   40 1
     5    2    3 1
     6    2    4 1
     7    2   20 1
     8    4    9 ar
     9    4    5 ar
    10    5    6 ar
    11    5   41 1
    12    6    7 ar
    13    6   42 1
    14    7    8 ar
    15    7   11 1
    16    8    9 ar
    17    8   43 1
    18    9   10 1
    19   11   12 1
    20   11   44 1
    21   11   45 1
    22   12   19 1
    23   12   13 1
    24   13   14 1
    25   13   46 1
    26   13   47 1
    27   14   15 1
    28   14   48 1
    29   14   49 1
    30   15   16 2
    31   15   17 2
    32   15   18 1
    33   18   19 1
    34   18   50 1
    35   18   51 1
    36   19   52 1
    37   19   53 1
    38   20   21 1
    39   21   25 2
    40   21   22 1
    41   22   23 2
    42   22   54 1
    43   23   24 1
    44   23   29 1
    45   24   25 1
    46   25   26 1
    47   26   27 2
    48   26   28 am
    49   28   55 1
    50   28   56 1
    51   29   33 1
    52   29   30 2
    53   30   31 1
    54   30   57 1
    55   31   32 2
    56   31   62 1
    57   32   37 1
    58   32   33 1
    59   33   34 1
    60   34   35 2
    61   34   58 1
    62   35   36 1
    63   35   59 1
    64   36   37 2
    65   36   60 1
    66   37   61 1
@<TRIPOS>MOLECULE
CHEMBL475947
   43    46     0     0     0
SMALL
USER_CHARGES

@<TRIPOS>ATOM
      1 C1          0.4860    0.2021    0.0336 C.ar      1 <0>        -0.1758
      2 C2          1.6008    1.0261    0.0014 C.ar      1 <0>        -0.0542
      3 C3          2.8556    0.4420    0.0803 C.ar      1 <0>        -0.1577
      4 C4          2.9530   -0.9327    0.1875 C.ar      1 <0>         0.1204
      5 N1          1.8708   -1.6854    0.2147 N.ar      1 <0>        -0.4871
      6 C5          0.6614   -1.1642    0.1423 C.ar      1 <0>         0.1022
      7 C6          4.0976    1.2948    0.0490 C.3       1 <0>         0.1884
      8 N2          4.4626    1.6764    1.4155 N.pl3     1 <0>        -0.7004
      9 C7          5.5756    2.4645    1.6390 C.ar      1 <0>         0.5830
     10 N3          6.2961    2.8689    0.6015 N.ar      1 <0>        -0.5924
     11 C8          7.3682    3.6243    0.7678 C.ar      1 <0>         0.2285
     12 C9          7.7416    3.9982    2.0598 C.ar      1 <0>        -0.1594
     13 C10         6.9521    3.5498    3.1374 C.ar      1 <0>         0.4705
     14 N4          5.8875    2.7978    2.8824 N.ar      1 <0>        -0.6113
     15 N5          7.2771    3.8911    4.4375 N.pl3     1 <0>        -0.6349
     16 C11         6.4226    3.5402    5.4867 C.ar      1 <0>         0.2123
     17 C12         6.9446    3.2370    6.7378 C.ar      1 <0>        -0.1587
     18 C13         6.0976    2.8907    7.7721 C.ar      1 <0>        -0.0457
     19 C14         4.7313    2.8451    7.5634 C.ar      1 <0>        -0.2222
     20 C15         4.2085    3.1459    6.3190 C.ar      1 <0>        -0.0500
     21 C16         5.0493    3.4995    5.2821 C.ar      1 <0>        -0.1264
     22 C17         3.8102    2.4663    8.6944 C.3       1 <0>         0.5122
     23 F1          3.4298    3.6179    9.3917 F         1 <0>        -0.1808
     24 F2          2.6726    1.8365    8.1783 F         1 <0>        -0.1810
     25 F3          4.4732    1.5928    9.5631 F         1 <0>        -0.1810
     26 C18         8.9327    4.8410    2.2912 C.2       1 <0>         0.1071
     27 N6          9.7597    5.3282    1.3630 N.2       1 <0>        -0.3672
     28 N7         10.6679    6.0098    1.9733 N.2       1 <0>        -0.1823
     29 N8         10.4482    5.9723    3.2407 N.2       1 <0>        -0.1792
     30 N9          9.3912    5.2706    3.4694 N.2       1 <0>        -0.3980
     31 H1         -0.5070    0.6232   -0.0212 H         1 <0>         0.1361
     32 H2          1.4942    2.0975   -0.0833 H         1 <0>         0.1370
     33 H3          3.9268   -1.3956    0.2494 H         1 <0>         0.1575
     34 H4         -0.2017   -1.8128    0.1684 H         1 <0>         0.1555
     35 H5          4.9145    0.7307   -0.4012 H         1 <0>         0.0789
     36 H6          3.9076    2.1919   -0.5403 H         1 <0>         0.0777
     37 H7          3.9231    1.3758    2.1635 H         1 <0>         0.4101
     38 H8          7.9476    3.9474   -0.0844 H         1 <0>         0.1753
     39 H9          8.0980    4.3740    4.6213 H         1 <0>         0.4447
     40 H10         8.0116    3.2717    6.9013 H         1 <0>         0.1368
     41 H11         6.5028    2.6548    8.7451 H         1 <0>         0.1344
     42 H12         3.1410    3.1090    6.1592 H         1 <0>         0.1315
     43 H13         4.6400    3.7390    4.3118 H         1 <0>         0.1457
@<TRIPOS>BOND
     1    1    6 ar
     2    1    2 ar
     3    1   31 1
     4    2    3 ar
     5    2   32 1
     6    3    4 ar
     7    3    7 1
     8    4    5 ar
     9    4   33 1
    10    5    6 ar
    11    6   34 1
    12    7    8 1
    13    7   35 1
    14    7   36 1
    15    8    9 1
    16    8   37 1
    17    9   14 ar
    18    9   10 ar
    19   10   11 ar
    20   11   12 ar
    21   11   38 1
    22   12   13 ar
    23   12   26 1
    24   13   14 ar
    25   13   15 1
    26   15   16 1
    27   15   39 1
    28   16   21 ar
    29   16   17 ar
    30   17   18 ar
    31   17   40 1
    32   18   19 ar
    33   18   41 1
    34   19   20 ar
    35   19   22 1
    36   20   21 ar
    37   20   42 1
    38   21   43 1
    39   22   23 1
    40   22   24 1
    41   22   25 1
    42   26   27 2
    43   26   30 1
    44   27   28 1
    45   28   29 2
    46   29   30 1
@<TRIPOS>MOLECULE
CHEMBL475947__1
   44    47     0     0     0
SMALL
USER_CHARGES

@<TRIPOS>ATOM
      1 C1          0.4854    0.2028    0.0339 C.ar      1 <0>        -0.1718
      2 C2          1.6003    1.0267    0.0017 C.ar      1 <0>        -0.0463
      3 C3          2.8550    0.4425    0.0804 C.ar      1 <0>        -0.1811
      4 C4          2.9523   -0.9322    0.1876 C.ar      1 <0>         0.1303
      5 N1          1.8701   -1.6849    0.2148 N.ar      1 <0>        -0.4818
      6 C5          0.6608   -1.1636    0.1426 C.ar      1 <0>         0.1225
      7 C6          4.0971    1.2952    0.0491 C.3       1 <0>         0.1474
      8 N2          4.4622    1.6767    1.4156 N.pl3     1 <0>        -0.6803
      9 C7          5.5753    2.4648    1.6390 C.ar      1 <0>         0.6411
     10 N3          6.2958    2.8691    0.6015 N.ar      1 <0>        -0.5604
     11 C8          7.3682    3.6240    0.7678 C.ar      1 <0>         0.1912
     12 C9          7.7417    3.9979    2.0598 C.ar      1 <0>        -0.0688
     13 C10         6.9519    3.5499    3.1374 C.ar      1 <0>         0.5218
     14 N4          5.8873    2.7980    2.8824 N.ar      1 <0>        -0.5651
     15 N5          7.2771    3.8912    4.4375 N.pl3     1 <0>        -0.5850
     16 C11         6.4224    3.5407    5.4867 C.ar      1 <0>         0.1625
     17 C12         6.9442    3.2374    6.7378 C.ar      1 <0>        -0.1290
     18 C13         6.0970    2.8915    7.7722 C.ar      1 <0>        -0.0455
     19 C14         4.7308    2.8464    7.5634 C.ar      1 <0>        -0.1905
     20 C15         4.2081    3.1473    6.3189 C.ar      1 <0>        -0.0512
     21 C16         5.0491    3.5004    5.2820 C.ar      1 <0>        -0.1150
     22 C17         3.8094    2.4681    8.6943 C.3       1 <0>         0.5096
     23 F1          3.4294    3.6199    9.3915 F         1 <0>        -0.1742
     24 F2          2.6716    1.8386    8.1782 F         1 <0>        -0.1771
     25 F3          4.4720    1.5944    9.5632 F         1 <0>        -0.1753
     26 C18         8.9331    4.8402    2.2912 C.2       1 <0>         0.0663
     27 N6          9.7604    5.3270    1.3630 N.2       1 <0>        -0.3450
     28 N7         10.6689    6.0083    1.9733 N.2       1 <0>        -0.1539
     29 N8         10.4491    5.9709    3.2407 N.2       1 <0>        -0.1472
     30 N9          9.3918    5.2697    3.4694 N.2       1 <0>        -0.3794
     31 H1         -0.5076    0.6240   -0.0208 H         1 <0>         0.1440
     32 H2          1.4937    2.0981   -0.0830 H         1 <0>         0.1401
     33 H3          3.9261   -1.3951    0.2495 H         1 <0>         0.1592
     34 H4         -0.2024   -1.8121    0.1686 H         1 <0>         0.1638
     35 H5          4.9139    0.7310   -0.4012 H         1 <0>         0.0956
     36 H6          3.9072    2.1923   -0.5401 H         1 <0>         0.0941
     37 H7          3.9227    1.3761    2.1636 H         1 <0>         0.4383
     38 H8          7.9478    3.9469   -0.0844 H         1 <0>         0.2206
     39 H9          8.0982    4.3737    4.6213 H         1 <0>         0.4562
     40 H10         8.0112    3.2718    6.9014 H         1 <0>         0.1467
     41 H11         6.5021    2.6557    8.7452 H         1 <0>         0.1464
     42 H12         3.1406    3.1108    6.1591 H         1 <0>         0.1419
     43 H13         4.6399    3.7400    4.3117 H         1 <0>         0.1455
     44 H14         6.0316    2.6063   -0.2941 H         1 <0>         0.4389
@<TRIPOS>BOND
     1    1    6 ar
     2    1    2 ar
     3    1   31 1
     4    2    3 ar
     5    2   32 1
     6    3    4 ar
     7    3    7 1
     8    4    5 ar
     9    4   33 1
    10    5    6 ar
    11    6   34 1
    12    7    8 1
    13    7   35 1
    14    7   36 1
    15    8    9 1
    16    8   37 1
    17    9   14 ar
    18    9   10 ar
    19   10   11 ar
    20   10   44 1
    21   11   12 ar
    22   11   38 1
    23   12   13 ar
    24   12   26 1
    25   13   14 ar
    26   13   15 1
    27   15   16 1
    28   15   39 1
    29   16   21 ar
    30   16   17 ar
    31   17   18 ar
    32   17   40 1
    33   18   19 ar
    34   18   41 1
    35   19   20 ar
    36   19   22 1
    37   20   21 ar
    38   20   42 1
    39   21   43 1
    40   22   23 1
    41   22   24 1
    42   22   25 1
    43   26   27 2
    44   26   30 1
    45   27   28 1
    46   28   29 2
    47   29   30 1
@<TRIPOS>MOLECULE
CHEMBL475946
   68    70     0     0     0
SMALL
USER_CHARGES

@<TRIPOS>ATOM
      1 C1          1.1668    1.4924    0.5053 C.3       1 <0>        -0.1689
      2 C2          0.9633   -0.0209    0.4089 C.3       1 <0>         0.1171
      3 N1          1.4815   -0.5025   -0.8740 N.am      1 <0>        -0.7271
      4 C3          1.4092   -1.8129   -1.1808 C.2       1 <0>         0.5894
      5 O1          0.9130   -2.5966   -0.3915 O.2       1 <0>        -0.5384
      6 C4          1.9108   -2.2791   -2.4225 C.2       1 <0>        -0.1986
      7 C5          1.8357   -3.6405   -2.7413 C.2       1 <0>         0.1993
      8 N2          2.1618   -4.2454   -3.9232 N.am      1 <0>        -0.5449
      9 C6          2.0302   -5.5568   -4.0576 C.2       1 <0>         0.5603
     10 O2          2.3100   -6.1342   -5.0933 O.2       1 <0>        -0.5105
     11 C7          1.5408   -6.2480   -2.9121 C.2       1 <0>        -0.4244
     12 C8          1.3028   -7.5734   -2.7438 C.2       1 <0>         0.3083
     13 N3          1.5389   -8.4466   -3.7703 N.pl3     1 <0>        -0.6233
     14 C9          1.2938   -9.8113   -3.5970 C.ar      1 <0>         0.1515
     15 C10         0.8046  -10.2813   -2.3832 C.ar      1 <0>        -0.1358
     16 C11         0.5607  -11.6301   -2.2070 C.ar      1 <0>        -0.0827
     17 C12         0.8005  -12.5198   -3.2348 C.ar      1 <0>        -0.1116
     18 C13         1.2912  -12.0582   -4.4574 C.ar      1 <0>        -0.1038
     19 C14         1.5330  -10.6963   -4.6373 C.ar      1 <0>        -0.0921
     20 C15         1.5489  -13.0093   -5.5598 C.2       1 <0>         0.5648
     21 O3          1.9762  -12.6052   -6.6236 O.2       1 <0>        -0.5199
     22 N4          1.3102  -14.3241   -5.3852 N.am      1 <0>        -0.7321
     23 C16         1.5656  -15.2664   -6.4774 C.3       1 <0>         0.1234
     24 C17         1.2142  -16.6838   -6.0209 C.3       1 <0>        -0.1621
     25 C18         1.4810  -17.6679   -7.1616 C.3       1 <0>        -0.0017
     26 N5          1.1436  -19.0288   -6.7233 N.4       1 <0>        -0.3943
     27 C19        -0.3247  -19.1588   -6.5406 C.3       1 <0>        -0.0084
     28 C20        -0.5613  -20.6863   -6.6475 C.3       1 <0>        -0.1459
     29 C21         0.4385  -21.1150   -7.7459 C.3       1 <0>        -0.1458
     30 C22         1.5078  -20.0071   -7.7710 C.3       1 <0>        -0.0085
     31 S1          1.3308   -4.9055   -1.7556 S.3       1 <0>         0.2764
     32 C23         2.6572   -3.4418   -5.0434 C.3       1 <0>         0.0801
     33 C24         4.1649   -3.2303   -4.8918 C.3       1 <0>        -0.1674
     34 C25         2.4942   -1.3576   -3.3505 C.1       1 <0>         0.2622
     35 N6          2.9570   -0.6266   -4.0867 N.1       1 <0>        -0.4179
     36 H1          2.2301    1.7213    0.4340 H         1 <0>         0.0619
     37 H2          0.6341    1.9833   -0.3091 H         1 <0>         0.0617
     38 H3          0.7812    1.8508    1.4598 H         1 <0>         0.0772
     39 H4          1.4960   -0.5118    1.2233 H         1 <0>         0.0720
     40 H5         -0.1001   -0.2497    0.4802 H         1 <0>         0.0717
     41 H6          1.8766    0.1217   -1.5026 H         1 <0>         0.3995
     42 H7          0.9271   -7.9389   -1.7995 H         1 <0>         0.1816
     43 H8          1.8763   -8.1183   -4.6184 H         1 <0>         0.4324
     44 H9          0.6150   -9.5901   -1.5753 H         1 <0>         0.1400
     45 H10         0.1814  -11.9894   -1.2618 H         1 <0>         0.1424
     46 H11         0.6089  -13.5731   -3.0929 H         1 <0>         0.1279
     47 H12         1.9091  -10.3330   -5.5822 H         1 <0>         0.1451
     48 H13         0.9692  -14.6466   -4.5362 H         1 <0>         0.4037
     49 H14         0.9526  -14.9996   -7.3383 H         1 <0>         0.0806
     50 H15         2.6190  -15.2246   -6.7545 H         1 <0>         0.0809
     51 H16         1.8272  -16.9507   -5.1600 H         1 <0>         0.0951
     52 H17         0.1609  -16.7257   -5.7438 H         1 <0>         0.0945
     53 H18         0.8679  -17.4011   -8.0225 H         1 <0>         0.1342
     54 H19         2.5343  -17.6261   -7.4387 H         1 <0>         0.1350
     55 H20        -0.6244  -18.7909   -5.5593 H         1 <0>         0.1348
     56 H21        -0.8589  -18.6306   -7.3303 H         1 <0>         0.1346
     57 H22        -0.3314  -21.1793   -5.7029 H         1 <0>         0.0983
     58 H23        -1.5856  -20.8974   -6.9547 H         1 <0>         0.1170
     59 H24         0.8922  -22.0729   -7.4915 H         1 <0>         0.1056
     60 H25        -0.0639  -21.1779   -8.7111 H         1 <0>         0.1043
     61 H26         1.5157  -19.5208   -8.7465 H         1 <0>         0.1317
     62 H27         2.4883  -20.4325   -7.5572 H         1 <0>         0.1331
     63 H28         2.4556   -3.9612   -5.9803 H         1 <0>         0.1053
     64 H29         2.1533   -2.4753   -5.0481 H         1 <0>         0.0962
     65 H30         4.3665   -2.7109   -3.9549 H         1 <0>         0.0622
     66 H31         4.6688   -4.1968   -4.8872 H         1 <0>         0.0637
     67 H32         4.5335   -2.6323   -5.7253 H         1 <0>         0.0820
     68 H33         1.6229  -19.2463   -5.8624 H         1 <0>         0.4270
@<TRIPOS>BOND
     1    1    2 1
     2    1   36 1
     3    1   37 1
     4    1   38 1
     5    2    3 1
     6    2   39 1
     7    2   40 1
     8    3    4 am
     9    3   41 1
    10    4    5 2
    11    4    6 1
    12    6    7 2
    13    6   34 1
    14    7   31 1
    15    7    8 1
    16    8    9 am
    17    8   32 1
    18    9   10 2
    19    9   11 1
    20   11   12 2
    21   11   31 1
    22   12   13 1
    23   12   42 1
    24   13   14 1
    25   13   43 1
    26   14   19 ar
    27   14   15 ar
    28   15   16 ar
    29   15   44 1
    30   16   17 ar
    31   16   45 1
    32   17   18 ar
    33   17   46 1
    34   18   19 ar
    35   18   20 1
    36   19   47 1
    37   20   21 2
    38   20   22 am
    39   22   23 1
    40   22   48 1
    41   23   24 1
    42   23   49 1
    43   23   50 1
    44   24   25 1
    45   24   51 1
    46   24   52 1
    47   25   26 1
    48   25   53 1
    49   25   54 1
    50   26   30 1
    51   26   27 1
    52   26   68 1
    53   27   28 1
    54   27   55 1
    55   27   56 1
    56   28   29 1
    57   28   57 1
    58   28   58 1
    59   29   30 1
    60   29   59 1
    61   29   60 1
    62   30   61 1
    63   30   62 1
    64   32   33 1
    65   32   63 1
    66   32   64 1
    67   33   65 1
    68   33   66 1
    69   33   67 1
    70   34   35 3
@<TRIPOS>MOLECULE
CHEMBL475946__1
   68    70     0     0     0
SMALL
USER_CHARGES

@<TRIPOS>ATOM
      1 C1          1.1668    1.4924    0.5053 C.3       1 <0>        -0.1690
      2 C2          0.9633   -0.0209    0.4089 C.3       1 <0>         0.1173
      3 N1          1.4815   -0.5025   -0.8740 N.am      1 <0>        -0.7267
      4 C3          1.4092   -1.8129   -1.1808 C.2       1 <0>         0.5895
      5 O1          0.9130   -2.5966   -0.3915 O.2       1 <0>        -0.5394
      6 C4          1.9108   -2.2791   -2.4225 C.2       1 <0>        -0.1964
      7 C5          1.8357   -3.6405   -2.7413 C.2       1 <0>         0.2106
      8 N2          2.1618   -4.2454   -3.9232 N.am      1 <0>        -0.5464
      9 C6          2.0302   -5.5568   -4.0576 C.2       1 <0>         0.5678
     10 O2          2.3100   -6.1342   -5.0933 O.2       1 <0>        -0.4917
     11 C7          1.5408   -6.2480   -2.9121 C.2       1 <0>        -0.4106
     12 C8          1.3028   -7.5734   -2.7438 C.2       1 <0>         0.3075
     13 N3          0.8269   -8.0365   -1.5476 N.pl3     1 <0>        -0.6326
     14 C9          0.5818   -9.4012   -1.3743 C.ar      1 <0>         0.1535
     15 C10         0.8271  -10.2895   -2.4156 C.ar      1 <0>        -0.1338
     16 C11         0.5863  -11.6400   -2.2490 C.ar      1 <0>        -0.0827
     17 C12         0.1012  -12.1165   -1.0478 C.ar      1 <0>        -0.1106
     18 C13        -0.1480  -11.2333    0.0041 C.ar      1 <0>        -0.1038
     19 C14         0.0994   -9.8707   -0.1620 C.ar      1 <0>        -0.0929
     20 C15        -0.6677  -11.7412    1.2918 C.2       1 <0>         0.5652
     21 O3         -0.8840  -10.9704    2.2064 O.2       1 <0>        -0.5196
     22 N4         -0.9017  -13.0589    1.4514 N.am      1 <0>        -0.7323
     23 C16        -1.4166  -13.5621    2.7272 C.3       1 <0>         0.1235
     24 C17        -1.5923  -15.0797    2.6433 C.3       1 <0>        -0.1624
     25 C18        -2.1301  -15.6053    3.9758 C.3       1 <0>        -0.0016
     26 N5         -2.2987  -17.0624    3.8952 N.4       1 <0>        -0.3943
     27 C19        -0.9732  -17.7276    3.8136 C.3       1 <0>        -0.0084
     28 C20        -1.2697  -19.1693    4.2975 C.3       1 <0>        -0.1460
     29 C21        -2.3072  -18.9499    5.4224 C.3       1 <0>        -0.1459
     30 C22        -2.9300  -17.5718    5.1319 C.3       1 <0>        -0.0085
     31 S1          1.3308   -4.9055   -1.7556 S.3       1 <0>         0.2318
     32 C23         2.6572   -3.4418   -5.0434 C.3       1 <0>         0.0806
     33 C24         4.1649   -3.2303   -4.8918 C.3       1 <0>        -0.1680
     34 C25         2.4942   -1.3576   -3.3505 C.1       1 <0>         0.2611
     35 N6          2.9570   -0.6266   -4.0867 N.1       1 <0>        -0.4144
     36 H1          2.2301    1.7213    0.4340 H         1 <0>         0.0622
     37 H2          0.6341    1.9833   -0.3091 H         1 <0>         0.0622
     38 H3          0.7812    1.8508    1.4598 H         1 <0>         0.0771
     39 H4          1.4960   -0.5118    1.2233 H         1 <0>         0.0715
     40 H5         -0.1001   -0.2497    0.4802 H         1 <0>         0.0713
     41 H6          1.8766    0.1217   -1.5026 H         1 <0>         0.4000
     42 H7          1.4891   -8.2627   -3.5541 H         1 <0>         0.1840
     43 H8          0.6595   -7.4174   -0.8198 H         1 <0>         0.4216
     44 H9          1.2067   -9.9227   -3.3578 H         1 <0>         0.1400
     45 H10         0.7781  -12.3251   -3.0616 H         1 <0>         0.1419
     46 H11        -0.0860  -13.1726   -0.9218 H         1 <0>         0.1278
     47 H12        -0.0880   -9.1831    0.6495 H         1 <0>         0.1469
     48 H13        -0.7291  -13.6740    0.7215 H         1 <0>         0.4036
     49 H14        -0.7125  -13.3214    3.5236 H         1 <0>         0.0808
     50 H15        -2.3788  -13.0962    2.9398 H         1 <0>         0.0812
     51 H16        -2.2964  -15.3205    1.8469 H         1 <0>         0.0950
     52 H17        -0.6301  -15.5456    2.4307 H         1 <0>         0.0944
     53 H18        -1.4259  -15.3645    4.7722 H         1 <0>         0.1343
     54 H19        -3.0923  -15.1394    4.1884 H         1 <0>         0.1351
     55 H20        -0.6086  -17.7340    2.7864 H         1 <0>         0.1347
     56 H21        -0.2566  -17.2398    4.4743 H         1 <0>         0.1347
     57 H22        -1.6954  -19.7669    3.4914 H         1 <0>         0.0982
     58 H23        -0.3674  -19.6374    4.6909 H         1 <0>         0.1169
     59 H24        -3.0721  -19.7256    5.3882 H         1 <0>         0.1056
     60 H25        -1.8152  -18.9452    6.3951 H         1 <0>         0.1043
     61 H26        -2.7285  -16.8914    5.9592 H         1 <0>         0.1318
     62 H27        -4.0053  -17.6739    4.9851 H         1 <0>         0.1331
     63 H28         2.4556   -3.9612   -5.9803 H         1 <0>         0.1074
     64 H29         2.1533   -2.4753   -5.0481 H         1 <0>         0.0958
     65 H30         4.3665   -2.7109   -3.9549 H         1 <0>         0.0611
     66 H31         4.6688   -4.1968   -4.8872 H         1 <0>         0.0652
     67 H32         4.5335   -2.6323   -5.7253 H         1 <0>         0.0827
     68 H33        -2.8605  -17.3042    3.0927 H         1 <0>         0.4271
@<TRIPOS>BOND
     1    1    2 1
     2    1   36 1
     3    1   37 1
     4    1   38 1
     5    2    3 1
     6    2   39 1
     7    2   40 1
     8    3    4 am
     9    3   41 1
    10    4    5 2
    11    4    6 1
    12    6    7 2
    13    6   34 1
    14    7   31 1
    15    7    8 1
    16    8    9 am
    17    8   32 1
    18    9   10 2
    19    9   11 1
    20   11   12 2
    21   11   31 1
    22   12   13 1
    23   12   42 1
    24   13   14 1
    25   13   43 1
    26   14   19 ar
    27   14   15 ar
    28   15   16 ar
    29   15   44 1
    30   16   17 ar
    31   16   45 1
    32   17   18 ar
    33   17   46 1
    34   18   19 ar
    35   18   20 1
    36   19   47 1
    37   20   21 2
    38   20   22 am
    39   22   23 1
    40   22   48 1
    41   23   24 1
    42   23   49 1
    43   23   50 1
    44   24   25 1
    45   24   51 1
    46   24   52 1
    47   25   26 1
    48   25   53 1
    49   25   54 1
    50   26   30 1
    51   26   27 1
    52   26   68 1
    53   27   28 1
    54   27   55 1
    55   27   56 1
    56   28   29 1
    57   28   57 1
    58   28   58 1
    59   29   30 1
    60   29   59 1
    61   29   60 1
    62   30   61 1
    63   30   62 1
    64   32   33 1
    65   32   63 1
    66   32   64 1
    67   33   65 1
    68   33   66 1
    69   33   67 1
    70   34   35 3
@<TRIPOS>MOLECULE
CHEMBL476782
   69    71     0     0     0
SMALL
USER_CHARGES

@<TRIPOS>ATOM
      1 C1         -1.0006   -0.0618    0.7114 C.3       1 <0>        -0.1664
      2 C2         -2.0128    1.0511    0.4324 C.3       1 <0>         0.0801
      3 N1         -3.3107    0.4587    0.1000 N.am      1 <0>        -0.5451
      4 C3         -4.2300    0.3093    1.0422 C.2       1 <0>         0.5605
      5 O1         -4.0381    0.6507    2.1958 O.2       1 <0>        -0.5142
      6 C4         -5.4577   -0.2761    0.6184 C.2       1 <0>        -0.4388
      7 C5         -6.5726   -0.5538    1.3405 C.2       1 <0>         0.3196
      8 N2         -6.6122   -0.2629    2.6768 N.pl3     1 <0>        -0.6171
      9 C6         -7.7600   -0.5488    3.4202 C.ar      1 <0>         0.1653
     10 C7         -8.8602   -1.1339    2.8042 C.ar      1 <0>        -0.1785
     11 C8         -9.9954   -1.4163    3.5386 C.ar      1 <0>        -0.0592
     12 C9        -10.0415   -1.1183    4.8873 C.ar      1 <0>        -0.1414
     13 C10        -8.9455   -0.5336    5.5090 C.ar      1 <0>         0.1861
     14 C11        -7.8011   -0.2541    4.7758 C.ar      1 <0>        -0.1801
     15 N3         -8.9935   -0.2319    6.8745 N.am      1 <0>        -0.6738
     16 C12        -9.7093   -1.0087    7.7115 C.2       1 <0>         0.5246
     17 O2        -10.2449   -2.0146    7.2963 O.2       1 <0>        -0.5101
     18 C13        -9.8443   -0.6275    9.1632 C.3       1 <0>        -0.0838
     19 C14       -10.7001   -1.6692    9.8866 C.3       1 <0>        -0.1307
     20 C15        -8.4573   -0.5710    9.8067 C.3       1 <0>        -0.1446
     21 C16       -10.5124    0.7447    9.2702 C.3       1 <0>        -0.1435
     22 S1         -5.1371   -0.5465   -1.1160 S.3       1 <0>         0.2766
     23 C17        -3.5729    0.0662   -1.1832 C.2       1 <0>         0.2014
     24 C18        -2.7302    0.1523   -2.2980 C.2       1 <0>        -0.2066
     25 C19        -1.3841    0.6160   -2.1439 C.1       1 <0>         0.2659
     26 N4         -0.3163    0.9839   -2.0217 N.1       1 <0>        -0.4245
     27 C20        -3.2096   -0.2198   -3.5797 C.2       1 <0>         0.5953
     28 O3         -4.3544   -0.6141   -3.7107 O.2       1 <0>        -0.5397
     29 N5         -2.3984   -0.1369   -4.6528 N.am      1 <0>        -0.7057
     30 C21        -2.9274   -0.4016   -5.9931 C.3       1 <0>         0.1803
     31 C22        -1.8890   -0.0084   -7.0731 C.3       1 <0>        -0.1178
     32 C23        -2.0755    1.5252   -7.1841 C.3       1 <0>        -0.1281
     33 C24        -3.5975    1.7325   -7.0418 C.3       1 <0>        -0.1243
     34 C25        -4.1391    0.5074   -6.2845 C.3       1 <0>        -0.1259
     35 C26        -3.3172   -1.8746   -6.1321 C.3       1 <0>         0.0678
     36 O4         -2.1562   -2.6919   -5.9709 O.3       1 <0>        -0.5697
     37 H1         -0.0349    0.3789    0.9588 H         1 <0>         0.0803
     38 H2         -1.3484   -0.6679    1.5480 H         1 <0>         0.0636
     39 H3         -0.8975   -0.6894   -0.1738 H         1 <0>         0.0618
     40 H4         -2.1159    1.6787    1.3177 H         1 <0>         0.1041
     41 H5         -1.6650    1.6572   -0.4041 H         1 <0>         0.0955
     42 H6         -7.4287   -1.0044    0.8603 H         1 <0>         0.1814
     43 H7         -5.8434    0.1418    3.1081 H         1 <0>         0.4296
     44 H8         -8.8275   -1.3677    1.7503 H         1 <0>         0.1325
     45 H9        -10.8491   -1.8706    3.0577 H         1 <0>         0.1375
     46 H10       -10.9308   -1.3401    5.4585 H         1 <0>         0.1412
     47 H11        -6.9460    0.1961    5.2580 H         1 <0>         0.1329
     48 H12        -8.5115    0.5363    7.2187 H         1 <0>         0.4126
     49 H13       -10.2241   -2.6468    9.8105 H         1 <0>         0.0642
     50 H14       -10.7977   -1.3935   10.9367 H         1 <0>         0.0665
     51 H15       -11.6882   -1.7095    9.4282 H         1 <0>         0.0645
     52 H16        -7.8476    0.1712    9.2913 H         1 <0>         0.0594
     53 H17        -8.5549   -0.2952   10.8567 H         1 <0>         0.0745
     54 H18        -7.9813   -1.5486    9.7305 H         1 <0>         0.0638
     55 H19       -11.5005    0.7045    8.8117 H         1 <0>         0.0638
     56 H20       -10.6100    1.0205   10.3202 H         1 <0>         0.0742
     57 H21        -9.9027    1.4869    8.7548 H         1 <0>         0.0601
     58 H22        -1.4643    0.0980   -4.5377 H         1 <0>         0.3995
     59 H23        -0.8787   -0.2519   -6.7444 H         1 <0>         0.0751
     60 H24        -2.1155   -0.4948   -8.0219 H         1 <0>         0.0839
     61 H25        -1.5444    2.0333   -6.3793 H         1 <0>         0.0647
     62 H26        -1.7309    1.8820   -8.1547 H         1 <0>         0.0690
     63 H27        -3.7991    2.6412   -6.4747 H         1 <0>         0.0640
     64 H28        -4.0593    1.7966   -8.0271 H         1 <0>         0.0659
     65 H29        -4.8638   -0.0230   -6.9023 H         1 <0>         0.0752
     66 H30        -4.6036    0.8216   -5.3498 H         1 <0>         0.0864
     67 H31        -4.0505   -2.1301   -5.3672 H         1 <0>         0.0683
     68 H32        -3.7473   -2.0450   -7.1191 H         1 <0>         0.0514
     69 H33        -2.3291   -3.6403   -6.0470 H         1 <0>         0.3784
@<TRIPOS>BOND
     1    1    2 1
     2    1   37 1
     3    1   38 1
     4    1   39 1
     5    2    3 1
     6    2   40 1
     7    2   41 1
     8    3   23 1
     9    3    4 am
    10    4    5 2
    11    4    6 1
    12    6    7 2
    13    6   22 1
    14    7    8 1
    15    7   42 1
    16    8    9 1
    17    8   43 1
    18    9   14 ar
    19    9   10 ar
    20   10   11 ar
    21   10   44 1
    22   11   12 ar
    23   11   45 1
    24   12   13 ar
    25   12   46 1
    26   13   14 ar
    27   13   15 1
    28   14   47 1
    29   15   16 am
    30   15   48 1
    31   16   17 2
    32   16   18 1
    33   18   19 1
    34   18   20 1
    35   18   21 1
    36   19   49 1
    37   19   50 1
    38   19   51 1
    39   20   52 1
    40   20   53 1
    41   20   54 1
    42   21   55 1
    43   21   56 1
    44   21   57 1
    45   22   23 1
    46   23   24 2
    47   24   25 1
    48   24   27 1
    49   25   26 3
    50   27   28 2
    51   27   29 am
    52   29   30 1
    53   29   58 1
    54   30   34 1
    55   30   31 1
    56   30   35 1
    57   31   32 1
    58   31   59 1
    59   31   60 1
    60   32   33 1
    61   32   61 1
    62   32   62 1
    63   33   34 1
    64   33   63 1
    65   33   64 1
    66   34   65 1
    67   34   66 1
    68   35   36 1
    69   35   67 1
    70   35   68 1
    71   36   69 1
@<TRIPOS>MOLECULE
CHEMBL476782__1
   69    71     0     0     0
SMALL
USER_CHARGES

@<TRIPOS>ATOM
      1 C1         -0.4956   -0.0707    0.2817 C.3       1 <0>        -0.1670
      2 C2         -1.4919    1.0394   -0.0585 C.3       1 <0>         0.0804
      3 N1         -2.8083    0.4513   -0.3185 N.am      1 <0>        -0.5466
      4 C3         -3.7089    0.3917    0.6512 C.2       1 <0>         0.5680
      5 O1         -3.4846    0.8139    1.7718 O.2       1 <0>        -0.4949
      6 C4         -4.9569   -0.1977    0.2982 C.2       1 <0>        -0.4249
      7 C5         -6.0606   -0.3974    1.0622 C.2       1 <0>         0.3195
      8 N2         -7.1693   -0.9890    0.5211 N.pl3     1 <0>        -0.6274
      9 C6         -8.3054   -1.1946    1.3077 C.ar      1 <0>         0.1676
     10 C7         -8.3124   -0.7934    2.6385 C.ar      1 <0>        -0.1768
     11 C8         -9.4352   -0.9969    3.4167 C.ar      1 <0>        -0.0588
     12 C9        -10.5548   -1.5997    2.8755 C.ar      1 <0>        -0.1410
     13 C10       -10.5545   -2.0030    1.5462 C.ar      1 <0>         0.1861
     14 C11        -9.4306   -1.7947    0.7597 C.ar      1 <0>        -0.1813
     15 N3        -11.6885   -2.6136    0.9994 N.am      1 <0>        -0.6737
     16 C12       -12.9162   -2.2674    1.4345 C.2       1 <0>         0.5244
     17 O2        -13.0432   -1.3700    2.2405 O.2       1 <0>        -0.5099
     18 C13       -14.1312   -2.9954    0.9197 C.3       1 <0>        -0.0837
     19 C14       -15.3882   -2.4116    1.5677 C.3       1 <0>        -0.1310
     20 C15       -14.2178   -2.8324   -0.5992 C.3       1 <0>        -0.1444
     21 C16       -14.0210   -4.4812    1.2677 C.3       1 <0>        -0.1435
     22 S1         -4.6806   -0.6030   -1.4174 S.3       1 <0>         0.2322
     23 C17        -3.1067   -0.0299   -1.5630 C.2       1 <0>         0.2127
     24 C18        -2.2877   -0.0447   -2.6985 C.2       1 <0>        -0.2038
     25 C19        -0.9298    0.4009   -2.6077 C.1       1 <0>         0.2649
     26 N4          0.1474    0.7543   -2.5357 N.1       1 <0>        -0.4212
     27 C20        -2.8029   -0.5008   -3.9384 C.2       1 <0>         0.5954
     28 O3         -3.9578   -0.8798   -4.0156 O.2       1 <0>        -0.5404
     29 N5         -2.0145   -0.5151   -5.0315 N.am      1 <0>        -0.7051
     30 C21        -2.5784   -0.8676   -6.3368 C.3       1 <0>         0.1802
     31 C22        -1.5572   -0.5776   -7.4647 C.3       1 <0>        -0.1177
     32 C23        -1.7163    0.9471   -7.6862 C.3       1 <0>        -0.1281
     33 C24        -3.2305    1.1963   -7.5280 C.3       1 <0>        -0.1244
     34 C25        -3.7786    0.0426   -6.6701 C.3       1 <0>        -0.1257
     35 C26        -2.9998   -2.3383   -6.3572 C.3       1 <0>         0.0682
     36 O4         -1.8514   -3.1655   -6.1596 O.3       1 <0>        -0.5693
     37 H1          0.4838    0.3669    0.4751 H         1 <0>         0.0810
     38 H2         -0.8361   -0.6055    1.1683 H         1 <0>         0.0651
     39 H3         -0.4245   -0.7644   -0.5561 H         1 <0>         0.0609
     40 H4         -1.5630    1.7331    0.7792 H         1 <0>         0.1061
     41 H5         -1.1514    1.5742   -0.9452 H         1 <0>         0.0951
     42 H6         -6.0637   -0.0894    2.0974 H         1 <0>         0.1843
     43 H7         -7.1665   -1.2656   -0.4086 H         1 <0>         0.4180
     44 H8         -7.4389   -0.3224    3.0646 H         1 <0>         0.1327
     45 H9         -9.4381   -0.6846    4.4506 H         1 <0>         0.1370
     46 H10       -11.4310   -1.7577    3.4868 H         1 <0>         0.1411
     47 H11        -9.4296   -2.1030   -0.2754 H         1 <0>         0.1343
     48 H12       -11.5911   -3.2861    0.3071 H         1 <0>         0.4128
     49 H13       -15.4667   -1.3531    1.3198 H         1 <0>         0.0643
     50 H14       -16.2669   -2.9381    1.1953 H         1 <0>         0.0665
     51 H15       -15.3265   -2.5277    2.6498 H         1 <0>         0.0643
     52 H16       -13.3223   -3.2483   -1.0609 H         1 <0>         0.0596
     53 H17       -15.0965   -3.3589   -0.9716 H         1 <0>         0.0744
     54 H18       -14.2963   -1.7739   -0.8471 H         1 <0>         0.0638
     55 H19       -13.9593   -4.5973    2.3497 H         1 <0>         0.0636
     56 H20       -14.8998   -5.0077    0.8953 H         1 <0>         0.0742
     57 H21       -13.1255   -4.8971    0.8060 H         1 <0>         0.0603
     58 H22        -1.0737   -0.2919   -4.9538 H         1 <0>         0.3999
     59 H23        -0.5446   -0.8172   -7.1399 H         1 <0>         0.0754
     60 H24        -1.8142   -1.1284   -8.3695 H         1 <0>         0.0840
     61 H25        -1.1575    1.5024   -6.9329 H         1 <0>         0.0650
     62 H26        -1.3868    1.2235   -8.6878 H         1 <0>         0.0694
     63 H27        -3.4017    2.1487   -7.0263 H         1 <0>         0.0641
     64 H28        -3.7129    1.1967   -8.5054 H         1 <0>         0.0660
     65 H29        -4.5271   -0.5170   -7.2311 H         1 <0>         0.0748
     66 H30        -4.2158    0.4350   -5.7520 H         1 <0>         0.0858
     67 H31        -3.7205   -2.5208   -5.5601 H         1 <0>         0.0675
     68 H32        -3.4551   -2.5725   -7.3194 H         1 <0>         0.0513
     69 H33        -2.0444   -4.1131   -6.1608 H         1 <0>         0.3782
@<TRIPOS>BOND
     1    1    2 1
     2    1   37 1
     3    1   38 1
     4    1   39 1
     5    2    3 1
     6    2   40 1
     7    2   41 1
     8    3   23 1
     9    3    4 am
    10    4    5 2
    11    4    6 1
    12    6    7 2
    13    6   22 1
    14    7    8 1
    15    7   42 1
    16    8    9 1
    17    8   43 1
    18    9   14 ar
    19    9   10 ar
    20   10   11 ar
    21   10   44 1
    22   11   12 ar
    23   11   45 1
    24   12   13 ar
    25   12   46 1
    26   13   14 ar
    27   13   15 1
    28   14   47 1
    29   15   16 am
    30   15   48 1
    31   16   17 2
    32   16   18 1
    33   18   19 1
    34   18   20 1
    35   18   21 1
    36   19   49 1
    37   19   50 1
    38   19   51 1
    39   20   52 1
    40   20   53 1
    41   20   54 1
    42   21   55 1
    43   21   56 1
    44   21   57 1
    45   22   23 1
    46   23   24 2
    47   24   25 1
    48   24   27 1
    49   25   26 3
    50   27   28 2
    51   27   29 am
    52   29   30 1
    53   29   58 1
    54   30   34 1
    55   30   31 1
    56   30   35 1
    57   31   32 1
    58   31   59 1
    59   31   60 1
    60   32   33 1
    61   32   61 1
    62   32   62 1
    63   33   34 1
    64   33   63 1
    65   33   64 1
    66   34   65 1
    67   34   66 1
    68   35   36 1
    69   35   67 1
    70   35   68 1
    71   36   69 1
@<TRIPOS>MOLECULE
CHEMBL476145
   52    55     0     0     0
SMALL
USER_CHARGES

@<TRIPOS>ATOM
      1 C1          0.3459   -0.8724    1.1699 C.3       1 <0>        -0.1372
      2 C2         -0.0125    0.0237   -0.0173 C.3       1 <0>        -0.0241
      3 C3         -1.5245   -0.0159   -0.2480 C.3       1 <0>        -0.1376
      4 C4          0.4207    1.4608    0.2794 C.3       1 <0>        -0.1423
      5 C5          0.6971   -0.4701   -1.2517 C.ar      1 <0>        -0.1040
      6 C6          1.5857    0.3570   -1.9140 C.ar      1 <0>        -0.1025
      7 C7          2.2373   -0.0922   -3.0458 C.ar      1 <0>        -0.1185
      8 C8          1.9997   -1.3766   -3.5183 C.ar      1 <0>         0.1706
      9 C9          1.1070   -2.2050   -2.8503 C.ar      1 <0>        -0.1520
     10 C10         0.4626   -1.7513   -1.7162 C.ar      1 <0>        -0.0940
     11 N1          2.6573   -1.8344   -4.6639 N.pl3     1 <0>        -0.6359
     12 C11         3.9410   -1.4027   -4.9432 C.ar      1 <0>         0.4752
     13 C12         4.5708   -1.7612   -6.1522 C.ar      1 <0>        -0.1657
     14 C13         5.8669   -1.2983   -6.3833 C.ar      1 <0>         0.2258
     15 N2          6.4540   -0.5459   -5.4680 N.ar      1 <0>        -0.5975
     16 C14         5.8317   -0.2277   -4.3412 C.ar      1 <0>         0.5819
     17 N3          4.5996   -0.6387   -4.0797 N.ar      1 <0>        -0.6107
     18 N4          6.4859    0.5613   -3.4141 N.pl3     1 <0>        -0.7015
     19 C15         7.8464    1.0329   -3.6837 C.3       1 <0>         0.1888
     20 C16         8.3277    1.8672   -2.5246 C.ar      1 <0>        -0.1562
     21 C17         8.1037    3.2355   -2.5036 C.ar      1 <0>        -0.0546
     22 C18         8.5644    3.9629   -1.4171 C.ar      1 <0>        -0.1760
     23 C19         9.2269    3.3047   -0.3980 C.ar      1 <0>         0.1016
     24 N5          9.4225    2.0019   -0.4518 N.ar      1 <0>        -0.4872
     25 C20         8.9929    1.2774   -1.4667 C.ar      1 <0>         0.1197
     26 C21         3.8778   -2.6047   -7.1476 C.2       1 <0>         0.1100
     27 N6          4.3601   -3.0126   -8.3239 N.2       1 <0>        -0.3695
     28 N7          3.4479   -3.7270   -8.8894 N.2       1 <0>        -0.1845
     29 N8          2.4167   -3.7854   -8.1218 N.2       1 <0>        -0.1816
     30 N9          2.6478   -3.1142   -7.0457 N.2       1 <0>        -0.3972
     31 H1          0.0374   -1.8962    0.9585 H         1 <0>         0.0559
     32 H2          1.4231   -0.8441    1.3343 H         1 <0>         0.0553
     33 H3         -0.1673   -0.5152    2.0627 H         1 <0>         0.0533
     34 H4         -2.0377    0.3413    0.6448 H         1 <0>         0.0534
     35 H5         -1.7798    0.6225   -1.0938 H         1 <0>         0.0556
     36 H6         -1.8330   -1.0397   -0.4594 H         1 <0>         0.0562
     37 H7          1.4978    1.4891    0.4438 H         1 <0>         0.0576
     38 H8          0.1653    2.0992   -0.5664 H         1 <0>         0.0576
     39 H9         -0.0926    1.8180    1.1722 H         1 <0>         0.0534
     40 H10         1.7699    1.3556   -1.5461 H         1 <0>         0.1212
     41 H11         2.9305    0.5545   -3.5630 H         1 <0>         0.1333
     42 H12         0.9198   -3.2041   -3.2153 H         1 <0>         0.1223
     43 H13        -0.2286   -2.3963   -1.1940 H         1 <0>         0.1181
     44 H14         2.2131   -2.4548   -5.2627 H         1 <0>         0.4413
     45 H15         6.3836   -1.5515   -7.2973 H         1 <0>         0.1730
     46 H16         6.0442    0.8028   -2.5850 H         1 <0>         0.4092
     47 H17         8.5084    0.1769   -3.8148 H         1 <0>         0.0782
     48 H18         7.8487    1.6364   -4.5914 H         1 <0>         0.0768
     49 H19         7.5831    3.7230   -3.3146 H         1 <0>         0.1368
     50 H20         8.4079    5.0303   -1.3677 H         1 <0>         0.1358
     51 H21         9.5889    3.8642    0.4519 H         1 <0>         0.1552
     52 H22         9.1670    0.2116   -1.4732 H         1 <0>         0.1574
@<TRIPOS>BOND
     1    1    2 1
     2    1   31 1
     3    1   32 1
     4    1   33 1
     5    2    3 1
     6    2    4 1
     7    2    5 1
     8    3   34 1
     9    3   35 1
    10    3   36 1
    11    4   37 1
    12    4   38 1
    13    4   39 1
    14    5   10 ar
    15    5    6 ar
    16    6    7 ar
    17    6   40 1
    18    7    8 ar
    19    7   41 1
    20    8    9 ar
    21    8   11 1
    22    9   10 ar
    23    9   42 1
    24   10   43 1
    25   11   12 1
    26   11   44 1
    27   12   17 ar
    28   12   13 ar
    29   13   14 ar
    30   13   26 1
    31   14   15 ar
    32   14   45 1
    33   15   16 ar
    34   16   17 ar
    35   16   18 1
    36   18   19 1
    37   18   46 1
    38   19   20 1
    39   19   47 1
    40   19   48 1
    41   20   25 ar
    42   20   21 ar
    43   21   22 ar
    44   21   49 1
    45   22   23 ar
    46   22   50 1
    47   23   24 ar
    48   23   51 1
    49   24   25 ar
    50   25   52 1
    51   26   27 2
    52   26   30 1
    53   27   28 1
    54   28   29 2
    55   29   30 1
@<TRIPOS>MOLECULE
CHEMBL476145__1
   53    56     0     0     0
SMALL
USER_CHARGES

@<TRIPOS>ATOM
      1 C1          0.3459   -0.8724    1.1699 C.3       1 <0>        -0.1397
      2 C2         -0.0125    0.0237   -0.0173 C.3       1 <0>        -0.0301
      3 C3         -1.5245   -0.0159   -0.2480 C.3       1 <0>        -0.1410
      4 C4          0.4207    1.4608    0.2794 C.3       1 <0>        -0.1452
      5 C5          0.6971   -0.4701   -1.2517 C.ar      1 <0>        -0.0702
      6 C6          1.5857    0.3570   -1.9140 C.ar      1 <0>        -0.1057
      7 C7          2.2373   -0.0922   -3.0458 C.ar      1 <0>        -0.1053
      8 C8          1.9997   -1.3766   -3.5183 C.ar      1 <0>         0.1166
      9 C9          1.1070   -2.2050   -2.8503 C.ar      1 <0>        -0.1215
     10 C10         0.4626   -1.7513   -1.7162 C.ar      1 <0>        -0.0948
     11 N1          2.6573   -1.8344   -4.6639 N.pl3     1 <0>        -0.5771
     12 C11         3.9410   -1.4027   -4.9432 C.ar      1 <0>         0.5181
     13 C12         4.5708   -1.7612   -6.1522 C.ar      1 <0>        -0.0707
     14 C13         5.8669   -1.2983   -6.3833 C.ar      1 <0>         0.1852
     15 N2          6.4540   -0.5459   -5.4680 N.ar      1 <0>        -0.5636
     16 C14         5.8317   -0.2277   -4.3412 C.ar      1 <0>         0.6403
     17 N3          4.5996   -0.6387   -4.0797 N.ar      1 <0>        -0.5635
     18 N4          6.4859    0.5613   -3.4141 N.pl3     1 <0>        -0.6826
     19 C15         7.8464    1.0329   -3.6837 C.3       1 <0>         0.1480
     20 C16         8.3277    1.8672   -2.5246 C.ar      1 <0>        -0.1793
     21 C17         8.1037    3.2355   -2.5036 C.ar      1 <0>        -0.0467
     22 C18         8.5644    3.9629   -1.4171 C.ar      1 <0>        -0.1720
     23 C19         9.2269    3.3047   -0.3980 C.ar      1 <0>         0.1217
     24 N5          9.4225    2.0019   -0.4518 N.ar      1 <0>        -0.4820
     25 C20         8.9929    1.2774   -1.4667 C.ar      1 <0>         0.1296
     26 C21         3.8778   -2.6047   -7.1476 C.2       1 <0>         0.0685
     27 N6          4.3601   -3.0126   -8.3239 N.2       1 <0>        -0.3467
     28 N7          3.4479   -3.7270   -8.8894 N.2       1 <0>        -0.1559
     29 N8          2.4167   -3.7854   -8.1218 N.2       1 <0>        -0.1494
     30 N9          2.6478   -3.1142   -7.0457 N.2       1 <0>        -0.3791
     31 H1          0.0374   -1.8962    0.9585 H         1 <0>         0.0581
     32 H2          1.4231   -0.8441    1.3343 H         1 <0>         0.0561
     33 H3         -0.1673   -0.5152    2.0627 H         1 <0>         0.0601
     34 H4         -2.0377    0.3413    0.6448 H         1 <0>         0.0602
     35 H5         -1.7798    0.6225   -1.0938 H         1 <0>         0.0575
     36 H6         -1.8330   -1.0397   -0.4594 H         1 <0>         0.0585
     37 H7          1.4978    1.4891    0.4438 H         1 <0>         0.0579
     38 H8          0.1653    2.0992   -0.5664 H         1 <0>         0.0590
     39 H9         -0.0926    1.8180    1.1722 H         1 <0>         0.0600
     40 H10         1.7699    1.3556   -1.5461 H         1 <0>         0.1316
     41 H11         2.9305    0.5545   -3.5630 H         1 <0>         0.1330
     42 H12         0.9198   -3.2041   -3.2153 H         1 <0>         0.1322
     43 H13        -0.2286   -2.3963   -1.1940 H         1 <0>         0.1303
     44 H14         2.2131   -2.4548   -5.2627 H         1 <0>         0.4532
     45 H15         6.3836   -1.5515   -7.2973 H         1 <0>         0.2183
     46 H16         6.0442    0.8028   -2.5850 H         1 <0>         0.4373
     47 H17         8.5084    0.1769   -3.8148 H         1 <0>         0.0945
     48 H18         7.8487    1.6364   -4.5914 H         1 <0>         0.0931
     49 H19         7.5831    3.7230   -3.3146 H         1 <0>         0.1399
     50 H20         8.4079    5.0303   -1.3677 H         1 <0>         0.1436
     51 H21         9.5889    3.8642    0.4519 H         1 <0>         0.1635
     52 H22         9.1670    0.2116   -1.4732 H         1 <0>         0.1591
     53 H23         7.3549   -0.2217   -5.6233 H         1 <0>         0.4370
@<TRIPOS>BOND
     1    1    2 1
     2    1   31 1
     3    1   32 1
     4    1   33 1
     5    2    3 1
     6    2    4 1
     7    2    5 1
     8    3   34 1
     9    3   35 1
    10    3   36 1
    11    4   37 1
    12    4   38 1
    13    4   39 1
    14    5   10 ar
    15    5    6 ar
    16    6    7 ar
    17    6   40 1
    18    7    8 ar
    19    7   41 1
    20    8    9 ar
    21    8   11 1
    22    9   10 ar
    23    9   42 1
    24   10   43 1
    25   11   12 1
    26   11   44 1
    27   12   17 ar
    28   12   13 ar
    29   13   14 ar
    30   13   26 1
    31   14   15 ar
    32   14   45 1
    33   15   16 ar
    34   15   53 1
    35   16   17 ar
    36   16   18 1
    37   18   19 1
    38   18   46 1
    39   19   20 1
    40   19   47 1
    41   19   48 1
    42   20   25 ar
    43   20   21 ar
    44   21   22 ar
    45   21   49 1
    46   22   23 ar
    47   22   50 1
    48   23   24 ar
    49   23   51 1
    50   24   25 ar
    51   25   52 1
    52   26   27 2
    53   26   30 1
    54   27   28 1
    55   28   29 2
    56   29   30 1
@<TRIPOS>MOLECULE
CHEMBL1209605
   55    59     0     0     0
SMALL
USER_CHARGES

@<TRIPOS>ATOM
      1 C1         -0.0053    1.5022    0.2564 C.3       1 <0>        -0.1930
      2 C2          0.0029   -0.0064    0.0012 C.3       1 <0>         0.1025
      3 H1          0.5788   -0.5037    0.7817 H         1 <0>         0.0910
      4 C3          0.6295   -0.2855   -1.3406 C.ar      1 <0>        -0.0418
      5 C4         -0.1690   -0.4286   -2.4601 C.ar      1 <0>        -0.0898
      6 C5          0.4056   -0.6846   -3.6908 C.ar      1 <0>        -0.0837
      7 C6          1.7791   -0.7971   -3.8024 C.ar      1 <0>        -0.1143
      8 C7          2.5775   -0.6532   -2.6834 C.ar      1 <0>        -0.0720
      9 C8          2.0029   -0.3929   -1.4531 C.ar      1 <0>        -0.1767
     10 C9          2.8737   -0.2307   -0.2339 C.3       1 <0>         0.5054
     11 F1          4.2165   -0.3807   -0.5967 F         1 <0>        -0.1709
     12 F2          2.6779    1.0419    0.3131 F         1 <0>        -0.1711
     13 F3          2.5352   -1.2027    0.7136 F         1 <0>        -0.1760
     14 O1         -1.3386   -0.4987    0.0122 O.3       1 <0>        -0.2564
     15 C10        -1.8684   -0.8173    1.2210 C.2       1 <0>         0.1989
     16 C11        -1.1785   -0.5657    2.3813 C.2       1 <0>        -0.2313
     17 C12        -1.7462   -0.9009    3.5808 C.2       1 <0>         0.1127
     18 S1         -3.3117   -1.5986    3.0825 S.3       1 <0>         0.1530
     19 C13        -3.1295   -1.4030    1.3173 C.2       1 <0>        -0.2738
     20 C14        -4.0295   -1.7528    0.2856 C.2       1 <0>         0.6124
     21 O2         -3.7333   -1.5446   -0.8776 O.2       1 <0>        -0.5168
     22 N1         -5.2155   -2.3169    0.5884 N.am      1 <0>        -0.8525
     23 N2         -1.2325   -0.7392    4.8642 N.pl3     1 <0>        -0.4136
     24 C15         0.0070   -1.1143    5.2925 C.2       1 <0>         0.2817
     25 N3          0.1555   -0.8131    6.5491 N.2       1 <0>        -0.4673
     26 C16        -0.9766   -0.2242    7.0157 C.ar      1 <0>         0.0556
     27 C17        -1.8815   -0.1631    5.9408 C.ar      1 <0>         0.0534
     28 C18        -3.1382    0.3999    6.1187 C.ar      1 <0>        -0.1018
     29 C19        -3.4992    0.8997    7.3381 C.ar      1 <0>        -0.0762
     30 C20        -2.6104    0.8500    8.4160 C.ar      1 <0>        -0.0551
     31 C21        -1.3521    0.2839    8.2595 C.ar      1 <0>        -0.0389
     32 C22        -3.0156    1.3974    9.7338 C.ar      1 <0>         0.0045
     33 C23        -2.1419    1.3642   10.8245 C.ar      1 <0>        -0.1666
     34 C24        -2.5589    1.8848   12.0321 C.ar      1 <0>         0.1056
     35 N4         -3.7628    2.4081   12.1644 N.ar      1 <0>        -0.4869
     36 C25        -4.6174    2.4591   11.1605 C.ar      1 <0>         0.1045
     37 C26        -4.2794    1.9659    9.9172 C.ar      1 <0>        -0.1664
     38 H2          1.0179    1.8777    0.2480 H         1 <0>         0.0973
     39 H3         -0.5812    1.9995   -0.5241 H         1 <0>         0.0775
     40 H4         -0.4585    1.7040    1.2269 H         1 <0>         0.0693
     41 H5         -1.2419   -0.3407   -2.3729 H         1 <0>         0.1485
     42 H6         -0.2182   -0.7971   -4.5651 H         1 <0>         0.1375
     43 H7          2.2281   -0.9978   -4.7639 H         1 <0>         0.1386
     44 H8          3.6503   -0.7414   -2.7705 H         1 <0>         0.1426
     45 H9         -0.2001   -0.1096    2.3478 H         1 <0>         0.1592
     46 H10        -5.4513   -2.4827    1.5146 H         1 <0>         0.3976
     47 H11        -5.8333   -2.5570   -0.1198 H         1 <0>         0.4105
     48 H12         0.7556   -1.5922    4.6780 H         1 <0>         0.2239
     49 H13        -3.8315    0.4430    5.2917 H         1 <0>         0.1309
     50 H14        -4.4781    1.3367    7.4700 H         1 <0>         0.1411
     51 H15        -0.6652    0.2465    9.0920 H         1 <0>         0.1418
     52 H16        -1.1552    0.9369   10.7234 H         1 <0>         0.1389
     53 H17        -1.8911    1.8633   12.8806 H         1 <0>         0.1591
     54 H18        -5.5930    2.8964   11.3130 H         1 <0>         0.1588
     55 H19        -4.9822    2.0150    9.0986 H         1 <0>         0.1385
@<TRIPOS>BOND
     1    1    2 1
     2    1   38 1
     3    1   39 1
     4    1   40 1
     5    2    3 1
     6    2    4 1
     7    2   14 1
     8    4    9 ar
     9    4    5 ar
    10    5    6 ar
    11    5   41 1
    12    6    7 ar
    13    6   42 1
    14    7    8 ar
    15    7   43 1
    16    8    9 ar
    17    8   44 1
    18    9   10 1
    19   10   11 1
    20   10   12 1
    21   10   13 1
    22   14   15 1
    23   15   19 2
    24   15   16 1
    25   16   17 2
    26   16   45 1
    27   17   18 1
    28   17   23 1
    29   18   19 1
    30   19   20 1
    31   20   21 2
    32   20   22 am
    33   22   46 1
    34   22   47 1
    35   23   27 1
    36   23   24 1
    37   24   25 2
    38   24   48 1
    39   25   26 1
    40   26   31 ar
    41   26   27 ar
    42   27   28 ar
    43   28   29 ar
    44   28   49 1
    45   29   30 ar
    46   29   50 1
    47   30   31 ar
    48   30   32 1
    49   31   51 1
    50   32   37 ar
    51   32   33 ar
    52   33   34 ar
    53   33   52 1
    54   34   35 ar
    55   34   53 1
    56   35   36 ar
    57   36   37 ar
    58   36   54 1
    59   37   55 1
@<TRIPOS>MOLECULE
CHEMBL1209606
   55    59     0     0     0
SMALL
USER_CHARGES

@<TRIPOS>ATOM
      1 C1         -0.2380    1.5010   -0.1014 C.3       1 <0>        -0.1931
      2 C2          0.0024   -0.0064    0.0031 C.3       1 <0>         0.1025
      3 H1         -0.9536   -0.5208    0.1016 H         1 <0>         0.0910
      4 C3          0.8557   -0.2965    1.2109 C.ar      1 <0>        -0.0418
      5 C4          2.2265   -0.4156    1.0763 C.ar      1 <0>        -0.0897
      6 C5          3.0091   -0.6816    2.1840 C.ar      1 <0>        -0.0837
      7 C6          2.4212   -0.8282    3.4268 C.ar      1 <0>        -0.1142
      8 C7          1.0509   -0.7083    3.5615 C.ar      1 <0>        -0.0720
      9 C8          0.2684   -0.4379    2.4541 C.ar      1 <0>        -0.1768
     10 C9         -1.2251   -0.3019    2.6018 C.3       1 <0>         0.5055
     11 F1         -1.5797   -0.4843    3.9428 F         1 <0>        -0.1709
     12 F2         -1.6208    0.9733    2.1842 F         1 <0>        -0.1711
     13 F3         -1.8614   -1.2684    1.8156 F         1 <0>        -0.1760
     14 O1          0.6709   -0.4649   -1.1737 O.3       1 <0>        -0.2562
     15 C10        -0.1062   -0.7743   -2.2432 C.2       1 <0>         0.1991
     16 C11        -1.4598   -0.5442   -2.2209 C.2       1 <0>        -0.2311
     17 C12        -2.2097   -0.8692   -3.3189 C.2       1 <0>         0.1129
     18 S1         -0.9850   -1.5257   -4.4391 S.3       1 <0>         0.1503
     19 C13         0.4497   -1.3286   -3.3950 C.2       1 <0>        -0.2731
     20 C14         1.7984   -1.6521   -3.6653 C.2       1 <0>         0.6124
     21 O2          2.6546   -1.4472   -2.8232 O.2       1 <0>        -0.5166
     22 N1          2.1376   -2.1872   -4.8549 N.am      1 <0>        -0.8524
     23 N2         -3.5803   -0.7248   -3.5126 N.pl3     1 <0>        -0.4137
     24 C15        -4.5651   -1.1316   -2.6619 C.2       1 <0>         0.2835
     25 N3         -5.7323   -0.8385   -3.1566 N.2       1 <0>        -0.4694
     26 C16        -5.5808   -0.2239   -4.3576 C.ar      1 <0>         0.0632
     27 C17        -4.1983   -0.1360   -4.6020 C.ar      1 <0>         0.0465
     28 C18        -3.7375    0.4571   -5.7653 C.ar      1 <0>        -0.0872
     29 C19        -4.6491    0.9659   -6.6847 C.ar      1 <0>        -0.0287
     30 C20        -6.0222    0.8787   -6.4350 C.ar      1 <0>        -0.1030
     31 C21        -6.4832    0.2885   -5.2950 C.ar      1 <0>        -0.0550
     32 C22        -4.1634    1.6029   -7.9326 C.ar      1 <0>         0.0016
     33 C23        -2.7954    1.6964   -8.2058 C.ar      1 <0>        -0.1667
     34 C24        -2.3869    2.2964   -9.3789 C.ar      1 <0>         0.1055
     35 N4         -3.2672    2.7779  -10.2356 N.ar      1 <0>        -0.4851
     36 C25        -4.5664    2.7100  -10.0160 C.ar      1 <0>         0.1051
     37 C26        -5.0612    2.1211   -8.8708 C.ar      1 <0>        -0.1626
     38 H2          0.7180    2.0153   -0.1999 H         1 <0>         0.0776
     39 H3         -0.8551    1.7108   -0.9750 H         1 <0>         0.0692
     40 H4         -0.7479    1.8507    0.7962 H         1 <0>         0.0973
     41 H5          2.6858   -0.3011    0.1056 H         1 <0>         0.1485
     42 H6          4.0799   -0.7753    2.0788 H         1 <0>         0.1376
     43 H7          3.0326   -1.0368    4.2922 H         1 <0>         0.1386
     44 H8          0.5915   -0.8231    4.5321 H         1 <0>         0.1426
     45 H9         -1.9268   -0.1126   -1.3479 H         1 <0>         0.1594
     46 H10         1.4559   -2.3503   -5.5254 H         1 <0>         0.3976
     47 H11         3.0634   -2.4092   -5.0405 H         1 <0>         0.4106
     48 H12        -4.4004   -1.6254   -1.7156 H         1 <0>         0.2239
     49 H13        -2.6769    0.5245   -5.9574 H         1 <0>         0.1308
     50 H14        -6.7236    1.2761   -7.1537 H         1 <0>         0.1406
     51 H15        -7.5456    0.2275   -5.1107 H         1 <0>         0.1420
     52 H16        -2.0693    1.3051   -7.5086 H         1 <0>         0.1354
     53 H17        -1.3323    2.3734   -9.5987 H         1 <0>         0.1588
     54 H18        -5.2519    3.1172  -10.7446 H         1 <0>         0.1600
     55 H19        -6.1260    2.0649   -8.6997 H         1 <0>         0.1406
@<TRIPOS>BOND
     1    1    2 1
     2    1   38 1
     3    1   39 1
     4    1   40 1
     5    2    3 1
     6    2    4 1
     7    2   14 1
     8    4    9 ar
     9    4    5 ar
    10    5    6 ar
    11    5   41 1
    12    6    7 ar
    13    6   42 1
    14    7    8 ar
    15    7   43 1
    16    8    9 ar
    17    8   44 1
    18    9   10 1
    19   10   11 1
    20   10   12 1
    21   10   13 1
    22   14   15 1
    23   15   19 2
    24   15   16 1
    25   16   17 2
    26   16   45 1
    27   17   18 1
    28   17   23 1
    29   18   19 1
    30   19   20 1
    31   20   21 2
    32   20   22 am
    33   22   46 1
    34   22   47 1
    35   23   27 1
    36   23   24 1
    37   24   25 2
    38   24   48 1
    39   25   26 1
    40   26   31 ar
    41   26   27 ar
    42   27   28 ar
    43   28   29 ar
    44   28   49 1
    45   29   30 ar
    46   29   32 1
    47   30   31 ar
    48   30   50 1
    49   31   51 1
    50   32   37 ar
    51   32   33 ar
    52   33   34 ar
    53   33   52 1
    54   34   35 ar
    55   34   53 1
    56   35   36 ar
    57   36   37 ar
    58   36   54 1
    59   37   55 1
@<TRIPOS>MOLECULE
CHEMBL477616
   66    68     0     0     0
SMALL
USER_CHARGES

@<TRIPOS>ATOM
      1 C1          1.1183   -0.3780    0.0061 C.3       1 <0>        -0.1681
      2 C2         -0.1133    0.5253    0.0957 C.3       1 <0>         0.0787
      3 N1         -1.3245   -0.2989    0.0942 N.am      1 <0>        -0.5418
      4 C3         -1.9026   -0.6264    1.2403 C.2       1 <0>         0.5609
      5 O1         -1.4612   -0.2639    2.3165 O.2       1 <0>        -0.5092
      6 C4         -3.0739   -1.4296    1.1326 C.2       1 <0>        -0.4329
      7 C5         -3.8753   -1.9182    2.1133 C.2       1 <0>         0.3174
      8 N2         -3.5928   -1.6501    3.4242 N.pl3     1 <0>        -0.6176
      9 C6         -4.4186   -2.1536    4.4347 C.ar      1 <0>         0.1370
     10 C7         -5.5226   -2.9306    4.1070 C.ar      1 <0>        -0.1399
     11 C8         -6.3374   -3.4272    5.1044 C.ar      1 <0>        -0.1043
     12 C9         -6.0536   -3.1502    6.4353 C.ar      1 <0>         0.1348
     13 C10        -4.9503   -2.3731    6.7631 C.ar      1 <0>        -0.0848
     14 C11        -4.1316   -1.8814    5.7664 C.ar      1 <0>        -0.1262
     15 N3         -6.8808   -3.6545    7.4475 N.am      1 <0>        -0.6752
     16 C12        -7.0162   -2.9792    8.6060 C.2       1 <0>         0.7092
     17 O2         -6.5061   -1.8829    8.7340 O.2       1 <0>        -0.5606
     18 N4         -7.7171   -3.5191    9.6228 N.am      1 <0>        -0.7439
     19 C13        -7.8643   -2.7851   10.8821 C.3       1 <0>         0.1163
     20 C14        -8.6980   -3.6141   11.8611 C.3       1 <0>        -0.0174
     21 N5         -8.8456   -2.8782   13.1238 N.4       1 <0>        -0.3909
     22 C15        -9.7041   -1.6829   12.9227 C.3       1 <0>        -0.0109
     23 C16       -10.2132   -1.3675   14.3516 C.3       1 <0>        -0.1455
     24 C17       -10.4325   -2.7724   14.9584 C.3       1 <0>        -0.1456
     25 C18        -9.5462   -3.7143   14.1226 C.3       1 <0>        -0.0069
     26 S1         -3.2062   -1.6211   -0.6365 S.3       1 <0>         0.2788
     27 C19        -1.8589   -0.7235   -1.0900 C.2       1 <0>         0.2073
     28 C20        -1.3893   -0.4709   -2.3859 C.2       1 <0>        -0.1831
     29 C21        -0.1403    0.2030   -2.5761 C.1       1 <0>         0.2734
     30 N6          0.8506    0.7377   -2.7271 N.1       1 <0>        -0.4148
     31 C22        -2.1498   -0.8820   -3.5069 C.2       1 <0>         0.5383
     32 O3         -3.2115   -1.4549   -3.3451 O.2       1 <0>        -0.5124
     33 O4         -1.6975   -0.6386   -4.7551 O.3       1 <0>        -0.3456
     34 C23        -2.5162   -1.0811   -5.8395 C.3       1 <0>         0.0643
     35 C24        -1.8449   -0.7196   -7.1659 C.3       1 <0>        -0.1547
     36 H1          2.0194    0.2352    0.0073 H         1 <0>         0.0834
     37 H2          1.1370   -1.0529    0.8618 H         1 <0>         0.0637
     38 H3          1.0759   -0.9598   -0.9147 H         1 <0>         0.0633
     39 H4         -0.0710    1.1071    1.0165 H         1 <0>         0.1072
     40 H5         -0.1320    1.2002   -0.7600 H         1 <0>         0.0979
     41 H6         -4.7361   -2.5185    1.8583 H         1 <0>         0.1815
     42 H7         -2.8197   -1.1109    3.6533 H         1 <0>         0.4316
     43 H8         -5.7436   -3.1458    3.0720 H         1 <0>         0.1387
     44 H9         -7.1959   -4.0310    4.8498 H         1 <0>         0.1372
     45 H10        -4.7303   -2.1573    7.7982 H         1 <0>         0.1465
     46 H11        -3.2709   -1.2811    6.0217 H         1 <0>         0.1366
     47 H12        -7.3561   -4.4895    7.3145 H         1 <0>         0.4113
     48 H13        -8.1241   -4.3937    9.5207 H         1 <0>         0.4056
     49 H14        -6.8798   -2.5983   11.3109 H         1 <0>         0.0904
     50 H15        -8.3643   -1.8353   10.6927 H         1 <0>         0.0903
     51 H16        -9.6825   -3.8010   11.4323 H         1 <0>         0.1371
     52 H17        -8.1980   -4.5640   12.0505 H         1 <0>         0.1377
     53 H18        -9.1194   -0.8509   12.5302 H         1 <0>         0.1384
     54 H19       -10.5377   -1.9151   12.2599 H         1 <0>         0.1356
     55 H20        -9.4610   -0.8166   14.9162 H         1 <0>         0.0997
     56 H21       -11.1509   -0.8131   14.3134 H         1 <0>         0.1182
     57 H22       -10.1201   -2.7864   16.0026 H         1 <0>         0.1067
     58 H23       -11.4796   -3.0625   14.8721 H         1 <0>         0.1049
     59 H24       -10.1653   -4.4557   13.6175 H         1 <0>         0.1318
     60 H25        -8.8200   -4.2098   14.7670 H         1 <0>         0.1345
     61 H26        -2.6450   -2.1619   -5.7801 H         1 <0>         0.0709
     62 H27        -3.4903   -0.5954   -5.7810 H         1 <0>         0.0706
     63 H28        -1.7161    0.3611   -7.2253 H         1 <0>         0.0665
     64 H29        -0.8708   -1.2053   -7.2244 H         1 <0>         0.0666
     65 H30        -2.4694   -1.0571   -7.9931 H         1 <0>         0.0815
     66 H31        -7.9404   -2.6026   13.4743 H         1 <0>         0.4303
@<TRIPOS>BOND
     1    1    2 1
     2    1   36 1
     3    1   37 1
     4    1   38 1
     5    2    3 1
     6    2   39 1
     7    2   40 1
     8    3   27 1
     9    3    4 am
    10    4    5 2
    11    4    6 1
    12    6    7 2
    13    6   26 1
    14    7    8 1
    15    7   41 1
    16    8    9 1
    17    8   42 1
    18    9   14 ar
    19    9   10 ar
    20   10   11 ar
    21   10   43 1
    22   11   12 ar
    23   11   44 1
    24   12   13 ar
    25   12   15 1
    26   13   14 ar
    27   13   45 1
    28   14   46 1
    29   15   16 am
    30   15   47 1
    31   16   17 2
    32   16   18 am
    33   18   19 1
    34   18   48 1
    35   19   20 1
    36   19   49 1
    37   19   50 1
    38   20   21 1
    39   20   51 1
    40   20   52 1
    41   21   25 1
    42   21   22 1
    43   21   66 1
    44   22   23 1
    45   22   53 1
    46   22   54 1
    47   23   24 1
    48   23   55 1
    49   23   56 1
    50   24   25 1
    51   24   57 1
    52   24   58 1
    53   25   59 1
    54   25   60 1
    55   26   27 1
    56   27   28 2
    57   28   29 1
    58   28   31 1
    59   29   30 3
    60   31   32 2
    61   31   33 1
    62   33   34 1
    63   34   35 1
    64   34   61 1
    65   34   62 1
    66   35   63 1
    67   35   64 1
    68   35   65 1
@<TRIPOS>MOLECULE
CHEMBL477616__1
   66    68     0     0     0
SMALL
USER_CHARGES

@<TRIPOS>ATOM
      1 C1          0.7611   -0.2814   -0.2990 C.3       1 <0>        -0.1688
      2 C2         -0.4724    0.6169   -0.1876 C.3       1 <0>         0.0790
      3 N1         -1.6768   -0.2140   -0.1159 N.am      1 <0>        -0.5432
      4 C3         -2.2066   -0.5099    1.0617 C.2       1 <0>         0.5682
      5 O1         -1.7254   -0.1122    2.1080 O.2       1 <0>        -0.4898
      6 C4         -3.3756   -1.3227    1.0251 C.2       1 <0>        -0.4186
      7 C5         -4.1340   -1.7859    2.0513 C.2       1 <0>         0.3173
      8 N2         -5.2305   -2.5619    1.7952 N.pl3     1 <0>        -0.6285
      9 C6         -6.0119   -3.0392    2.8525 C.ar      1 <0>         0.1389
     10 C7         -5.6775   -2.7202    4.1627 C.ar      1 <0>        -0.1380
     11 C8         -6.4489   -3.1914    5.2059 C.ar      1 <0>        -0.1042
     12 C9         -7.5590   -3.9841    4.9460 C.ar      1 <0>         0.1355
     13 C10        -7.8932   -4.3035    3.6365 C.ar      1 <0>        -0.0850
     14 C11        -7.1258   -3.8276    2.5925 C.ar      1 <0>        -0.1273
     15 N3         -8.3418   -4.4622    6.0052 N.am      1 <0>        -0.6756
     16 C12        -9.0007   -5.6315    5.8819 C.2       1 <0>         0.7096
     17 O2         -8.8336   -6.3224    4.8954 O.2       1 <0>        -0.5607
     18 N4         -9.8448   -6.0349    6.8521 N.am      1 <0>        -0.7439
     19 C13       -10.5610   -7.3058    6.7181 C.3       1 <0>         0.1164
     20 C14       -11.4463   -7.5243    7.9466 C.3       1 <0>        -0.0175
     21 N5        -12.1645   -8.7988    7.8122 N.4       1 <0>        -0.3908
     22 C15       -11.2135   -9.9354    7.9112 C.3       1 <0>        -0.0109
     23 C16       -12.1218  -11.1233    8.3167 C.3       1 <0>        -0.1454
     24 C17       -13.1362  -10.4688    9.2825 C.3       1 <0>        -0.1456
     25 C18       -13.1147   -8.9693    8.9327 C.3       1 <0>        -0.0069
     26 S1         -3.5767   -1.5688   -0.7307 S.3       1 <0>         0.2335
     27 C19        -2.2547   -0.6776   -1.2645 C.2       1 <0>         0.2191
     28 C20        -1.8388   -0.4618   -2.5851 C.2       1 <0>        -0.1805
     29 C21        -0.6030    0.2133   -2.8453 C.1       1 <0>         0.2723
     30 N6          0.3773    0.7489   -3.0517 N.1       1 <0>        -0.4112
     31 C22        -2.6402   -0.9112   -3.6620 C.2       1 <0>         0.5386
     32 O3         -3.6906   -1.4851   -3.4408 O.2       1 <0>        -0.5132
     33 O4         -2.2396   -0.7034   -4.9340 O.3       1 <0>        -0.3449
     34 C23        -3.0976   -1.1834   -5.9710 C.3       1 <0>         0.0644
     35 C24        -2.4819   -0.8586   -7.3335 C.3       1 <0>        -0.1548
     36 H1          1.6572    0.3368   -0.3523 H         1 <0>         0.0842
     37 H2          0.8185   -0.9299    0.5753 H         1 <0>         0.0651
     38 H3          0.6863   -0.8913   -1.1993 H         1 <0>         0.0623
     39 H4         -0.3976    1.2267    0.7128 H         1 <0>         0.1093
     40 H5         -0.5297    1.2653   -1.0618 H         1 <0>         0.0977
     41 H6         -3.8714   -1.5415    3.0700 H         1 <0>         0.1849
     42 H7         -5.4663   -2.7814    0.8802 H         1 <0>         0.4199
     43 H8         -4.8140   -2.1039    4.3649 H         1 <0>         0.1389
     44 H9         -6.1888   -2.9437    6.2245 H         1 <0>         0.1368
     45 H10        -8.7563   -4.9207    3.4347 H         1 <0>         0.1470
     46 H11        -7.3886   -4.0720    1.5738 H         1 <0>         0.1380
     47 H12        -8.4095   -3.9517    6.8271 H         1 <0>         0.4113
     48 H13        -9.9781   -5.4837    7.6390 H         1 <0>         0.4056
     49 H14       -11.1820   -7.2803    5.8226 H         1 <0>         0.0906
     50 H15        -9.8421   -8.1213    6.6386 H         1 <0>         0.0903
     51 H16       -10.8254   -7.5499    8.8420 H         1 <0>         0.1369
     52 H17       -12.1652   -6.7088    8.0261 H         1 <0>         0.1378
     53 H18       -10.7392  -10.1251    6.9483 H         1 <0>         0.1385
     54 H19       -10.4642   -9.7444    8.6793 H         1 <0>         0.1355
     55 H20       -12.6300  -11.5355    7.4449 H         1 <0>         0.0998
     56 H21       -11.5443  -11.8935    8.8279 H         1 <0>         0.1181
     57 H22       -14.1324  -10.8807    9.1210 H         1 <0>         0.1067
     58 H23       -12.8263  -10.6206   10.3164 H         1 <0>         0.1047
     59 H24       -12.7801   -8.3917    9.7945 H         1 <0>         0.1317
     60 H25       -14.1097   -8.6447    8.6284 H         1 <0>         0.1345
     61 H26        -3.2162   -2.2626   -5.8740 H         1 <0>         0.0703
     62 H27        -4.0719   -0.7019   -5.8885 H         1 <0>         0.0704
     63 H28        -2.3633    0.2206   -7.4306 H         1 <0>         0.0669
     64 H29        -1.5076   -1.3401   -7.4161 H         1 <0>         0.0670
     65 H30        -3.1364   -1.2247   -8.1245 H         1 <0>         0.0815
     66 H31       -12.6558   -8.8306    6.9315 H         1 <0>         0.4303
@<TRIPOS>BOND
     1    1    2 1
     2    1   36 1
     3    1   37 1
     4    1   38 1
     5    2    3 1
     6    2   39 1
     7    2   40 1
     8    3   27 1
     9    3    4 am
    10    4    5 2
    11    4    6 1
    12    6    7 2
    13    6   26 1
    14    7    8 1
    15    7   41 1
    16    8    9 1
    17    8   42 1
    18    9   14 ar
    19    9   10 ar
    20   10   11 ar
    21   10   43 1
    22   11   12 ar
    23   11   44 1
    24   12   13 ar
    25   12   15 1
    26   13   14 ar
    27   13   45 1
    28   14   46 1
    29   15   16 am
    30   15   47 1
    31   16   17 2
    32   16   18 am
    33   18   19 1
    34   18   48 1
    35   19   20 1
    36   19   49 1
    37   19   50 1
    38   20   21 1
    39   20   51 1
    40   20   52 1
    41   21   25 1
    42   21   22 1
    43   21   66 1
    44   22   23 1
    45   22   53 1
    46   22   54 1
    47   23   24 1
    48   23   55 1
    49   23   56 1
    50   24   25 1
    51   24   57 1
    52   24   58 1
    53   25   59 1
    54   25   60 1
    55   26   27 1
    56   27   28 2
    57   28   29 1
    58   28   31 1
    59   29   30 3
    60   31   32 2
    61   31   33 1
    62   33   34 1
    63   34   35 1
    64   34   61 1
    65   34   62 1
    66   35   63 1
    67   35   64 1
    68   35   65 1
@<TRIPOS>MOLECULE
CHEMBL477615
   45    46     0     0     0
SMALL
USER_CHARGES

@<TRIPOS>ATOM
      1 C1          0.0091    1.3507    1.4592 C.3       1 <0>        -0.1500
      2 C2          0.0156   -0.1674    1.2687 C.3       1 <0>        -0.1253
      3 C3         -1.4147   -0.6581    1.0353 C.3       1 <0>         0.0677
      4 O1         -1.4087   -2.0760    0.8574 O.3       1 <0>        -0.3463
      5 C4         -2.6003   -2.6713    0.6394 C.2       1 <0>         0.5387
      6 O2         -3.6168   -2.0027    0.6018 O.2       1 <0>        -0.5126
      7 C5         -2.6679   -4.0731    0.4547 C.2       1 <0>        -0.1898
      8 C6         -3.9050   -4.6911    0.2285 C.2       1 <0>         0.2092
      9 N1         -4.1453   -6.0010   -0.0790 N.am      1 <0>        -0.5417
     10 C7         -5.3873   -6.4243   -0.2622 C.2       1 <0>         0.5605
     11 O3         -5.6438   -7.5831   -0.5374 O.2       1 <0>        -0.5093
     12 C8         -6.4030   -5.4367   -0.1160 C.2       1 <0>        -0.4398
     13 C9         -7.7490   -5.5618   -0.2406 C.2       1 <0>         0.3229
     14 N2         -8.2972   -6.7759   -0.5494 N.pl3     1 <0>        -0.6144
     15 C10        -9.6843   -6.9049   -0.6777 C.ar      1 <0>         0.1320
     16 C11       -10.5047   -5.7986   -0.4971 C.ar      1 <0>        -0.1443
     17 C12       -11.8736   -5.9269   -0.6238 C.ar      1 <0>        -0.1069
     18 C13       -12.4297   -7.1601   -0.9311 C.ar      1 <0>         0.0901
     19 C14       -11.6111   -8.2657   -1.1113 C.ar      1 <0>        -0.1079
     20 C15       -10.2416   -8.1380   -0.9914 C.ar      1 <0>        -0.1290
     21 O4        -13.7779   -7.2855   -1.0553 O.3       1 <0>        -0.4961
     22 S1         -5.4333   -3.9923    0.2805 S.3       1 <0>         0.2818
     23 C16        -3.0271   -6.9388   -0.2068 C.3       1 <0>         0.0786
     24 C17        -2.6494   -7.4735    1.1761 C.3       1 <0>        -0.1676
     25 C18        -1.4721   -4.8596    0.4990 C.1       1 <0>         0.2763
     26 N3         -0.5235   -5.4836    0.5342 N.1       1 <0>        -0.4195
     27 H1          1.0281    1.7003    1.6255 H         1 <0>         0.0647
     28 H2         -0.3975    1.8271    0.5671 H         1 <0>         0.0586
     29 H3         -0.6078    1.6062    2.3208 H         1 <0>         0.0587
     30 H4          0.6325   -0.4228    0.4071 H         1 <0>         0.0734
     31 H5          0.4221   -0.6438    2.1608 H         1 <0>         0.0735
     32 H6         -2.0316   -0.4027    1.8969 H         1 <0>         0.0707
     33 H7         -1.8213   -0.1817    0.1432 H         1 <0>         0.0705
     34 H8         -8.3869   -4.7024   -0.0957 H         1 <0>         0.1820
     35 H9         -7.7243   -7.5478   -0.6795 H         1 <0>         0.4312
     36 H10       -10.0720   -4.8386   -0.2572 H         1 <0>         0.1361
     37 H11       -12.5117   -5.0669   -0.4834 H         1 <0>         0.1402
     38 H12       -12.0450   -9.2255   -1.3497 H         1 <0>         0.1394
     39 H13        -9.6041   -8.9976   -1.1364 H         1 <0>         0.1362
     40 H14       -14.1059   -7.1352   -1.9525 H         1 <0>         0.3936
     41 H15        -3.3207   -7.7688   -0.8495 H         1 <0>         0.1067
     42 H16        -2.1708   -6.4257   -0.6443 H         1 <0>         0.0977
     43 H17        -2.3559   -6.6435    1.8188 H         1 <0>         0.0627
     44 H18        -3.5058   -7.9866    1.6136 H         1 <0>         0.0641
     45 H19        -1.8174   -8.1713    1.0810 H         1 <0>         0.0825
@<TRIPOS>BOND
     1    1    2 1
     2    1   27 1
     3    1   28 1
     4    1   29 1
     5    2    3 1
     6    2   30 1
     7    2   31 1
     8    3    4 1
     9    3   32 1
    10    3   33 1
    11    4    5 1
    12    5    6 2
    13    5    7 1
    14    7    8 2
    15    7   25 1
    16    8   22 1
    17    8    9 1
    18    9   10 am
    19    9   23 1
    20   10   11 2
    21   10   12 1
    22   12   13 2
    23   12   22 1
    24   13   14 1
    25   13   34 1
    26   14   15 1
    27   14   35 1
    28   15   20 ar
    29   15   16 ar
    30   16   17 ar
    31   16   36 1
    32   17   18 ar
    33   17   37 1
    34   18   19 ar
    35   18   21 1
    36   19   20 ar
    37   19   38 1
    38   20   39 1
    39   21   40 1
    40   23   24 1
    41   23   41 1
    42   23   42 1
    43   24   43 1
    44   24   44 1
    45   24   45 1
    46   25   26 3
@<TRIPOS>MOLECULE
CHEMBL477615__1
   45    46     0     0     0
SMALL
USER_CHARGES

@<TRIPOS>ATOM
      1 C1          0.0091    1.3507    1.4592 C.3       1 <0>        -0.1500
      2 C2          0.0156   -0.1674    1.2687 C.3       1 <0>        -0.1254
      3 C3         -1.4147   -0.6581    1.0353 C.3       1 <0>         0.0678
      4 O1         -1.4087   -2.0760    0.8574 O.3       1 <0>        -0.3457
      5 C4         -2.6003   -2.6713    0.6394 C.2       1 <0>         0.5387
      6 O2         -3.6168   -2.0027    0.6018 O.2       1 <0>        -0.5127
      7 C5         -2.6679   -4.0731    0.4547 C.2       1 <0>        -0.1867
      8 C6         -3.9050   -4.6911    0.2285 C.2       1 <0>         0.2207
      9 N1         -4.1453   -6.0010   -0.0790 N.am      1 <0>        -0.5432
     10 C7         -5.3873   -6.4243   -0.2622 C.2       1 <0>         0.5685
     11 O3         -5.6438   -7.5831   -0.5374 O.2       1 <0>        -0.4905
     12 C8         -6.4030   -5.4367   -0.1160 C.2       1 <0>        -0.4257
     13 C9         -7.7490   -5.5618   -0.2406 C.2       1 <0>         0.3233
     14 N2         -8.5567   -4.4737   -0.0571 N.pl3     1 <0>        -0.6261
     15 C10        -9.9438   -4.6026   -0.1854 C.ar      1 <0>         0.1343
     16 C11       -10.5015   -5.8369   -0.4935 C.ar      1 <0>        -0.1426
     17 C12       -11.8706   -5.9632   -0.6200 C.ar      1 <0>        -0.1067
     18 C13       -12.6892   -4.8577   -0.4399 C.ar      1 <0>         0.0906
     19 C14       -12.1331   -3.6244   -0.1326 C.ar      1 <0>        -0.1080
     20 C15       -10.7646   -3.4976    0.0008 C.ar      1 <0>        -0.1303
     21 O4        -14.0373   -4.9829   -0.5651 O.3       1 <0>        -0.4962
     22 S1         -5.4333   -3.9923    0.2805 S.3       1 <0>         0.2367
     23 C16        -3.0271   -6.9388   -0.2068 C.3       1 <0>         0.0790
     24 C17        -2.6494   -7.4735    1.1761 C.3       1 <0>        -0.1682
     25 C18        -1.4721   -4.8596    0.4990 C.1       1 <0>         0.2754
     26 N3         -0.5235   -5.4836    0.5342 N.1       1 <0>        -0.4163
     27 H1          1.0281    1.7003    1.6255 H         1 <0>         0.0650
     28 H2         -0.3975    1.8271    0.5671 H         1 <0>         0.0586
     29 H3         -0.6078    1.6062    2.3208 H         1 <0>         0.0586
     30 H4          0.6325   -0.4228    0.4071 H         1 <0>         0.0737
     31 H5          0.4221   -0.6438    2.1608 H         1 <0>         0.0738
     32 H6         -2.0316   -0.4027    1.8969 H         1 <0>         0.0705
     33 H7         -1.8213   -0.1817    0.1432 H         1 <0>         0.0705
     34 H8         -8.1820   -6.5207   -0.4845 H         1 <0>         0.1855
     35 H9         -8.1679   -3.6124    0.1620 H         1 <0>         0.4195
     36 H10        -9.8643   -6.6975   -0.6345 H         1 <0>         0.1363
     37 H11       -12.3044   -6.9228   -0.8596 H         1 <0>         0.1398
     38 H12       -12.7710   -2.7642    0.0067 H         1 <0>         0.1398
     39 H13       -10.3323   -2.5385    0.2448 H         1 <0>         0.1375
     40 H14       -14.4899   -5.2058    0.2599 H         1 <0>         0.3938
     41 H15        -3.3207   -7.7688   -0.8495 H         1 <0>         0.1085
     42 H16        -2.1708   -6.4257   -0.6443 H         1 <0>         0.0975
     43 H17        -2.3559   -6.6435    1.8188 H         1 <0>         0.0619
     44 H18        -3.5058   -7.9866    1.6136 H         1 <0>         0.0654
     45 H19        -1.8174   -8.1713    1.0810 H         1 <0>         0.0831
@<TRIPOS>BOND
     1    1    2 1
     2    1   27 1
     3    1   28 1
     4    1   29 1
     5    2    3 1
     6    2   30 1
     7    2   31 1
     8    3    4 1
     9    3   32 1
    10    3   33 1
    11    4    5 1
    12    5    6 2
    13    5    7 1
    14    7    8 2
    15    7   25 1
    16    8   22 1
    17    8    9 1
    18    9   10 am
    19    9   23 1
    20   10   11 2
    21   10   12 1
    22   12   13 2
    23   12   22 1
    24   13   14 1
    25   13   34 1
    26   14   15 1
    27   14   35 1
    28   15   20 ar
    29   15   16 ar
    30   16   17 ar
    31   16   36 1
    32   17   18 ar
    33   17   37 1
    34   18   19 ar
    35   18   21 1
    36   19   20 ar
    37   19   38 1
    38   20   39 1
    39   21   40 1
    40   23   24 1
    41   23   41 1
    42   23   42 1
    43   24   43 1
    44   24   44 1
    45   24   45 1
    46   25   26 3
@<TRIPOS>MOLECULE
CHEMBL563469
   62    66     0     0     0
SMALL
USER_CHARGES

@<TRIPOS>ATOM
      1 C1         -0.0480    1.2718    0.3454 C.3       1 <0>        -0.1786
      2 C2         -0.0149   -0.2306    0.0579 C.3       1 <0>         0.1072
      3 H1          0.5050   -0.7440    0.8667 H         1 <0>         0.0969
      4 C3         -1.4246   -0.7535   -0.0449 C.ar      1 <0>        -0.0414
      5 C4         -2.0301   -0.8704   -1.2820 C.ar      1 <0>        -0.0704
      6 C5         -3.3230   -1.3500   -1.3764 C.ar      1 <0>        -0.0918
      7 C6         -4.0114   -1.7131   -0.2336 C.ar      1 <0>        -0.1491
      8 C7         -3.4071   -1.5967    1.0037 C.ar      1 <0>        -0.0852
      9 C8         -2.1108   -1.1220    1.0983 C.ar      1 <0>        -0.0284
     10 Cl1        -1.3486   -0.9817    2.6518 Cl        1 <0>        -0.0372
     11 C9         -5.4212   -2.2354   -0.3373 C.3       1 <0>         0.0460
     12 N1         -5.3922   -3.6964   -0.4880 N.4       1 <0>        -0.3863
     13 C10        -4.7462   -4.0430   -1.7596 C.3       1 <0>        -0.0105
     14 C11        -4.6405   -5.5644   -1.8843 C.3       1 <0>        -0.1751
     15 C12        -6.0450   -6.1735   -1.8408 C.3       1 <0>         0.0856
     16 C13        -6.7369   -5.7441   -0.5438 C.3       1 <0>        -0.1766
     17 C14        -6.7649   -4.2161   -0.4687 C.3       1 <0>        -0.0021
     18 F1         -5.9513   -7.5687   -1.8813 F         1 <0>        -0.1896
     19 O1          0.6709   -0.4649   -1.1737 O.3       1 <0>        -0.2667
     20 C15         2.0249   -0.5529   -1.1182 C.2       1 <0>         0.2041
     21 C16         2.6953   -0.3095    0.0505 C.2       1 <0>        -0.2562
     22 C17         4.0807   -0.4118    0.0583 C.2       1 <0>         0.0183
     23 S1          4.4387   -0.8636   -1.6310 S.3       1 <0>         0.1149
     24 C18         2.7646   -0.8992   -2.2494 C.2       1 <0>        -0.2979
     25 C19         2.3063   -1.1988   -3.5511 C.2       1 <0>         0.6166
     26 O2          1.1133   -1.1722   -3.7982 O.2       1 <0>        -0.5332
     27 N2          3.1883   -1.5141   -4.5201 N.am      1 <0>        -0.8535
     28 C20         5.0129   -0.2011    1.1722 C.2       1 <0>        -0.0404
     29 C21         4.6825    0.0500    2.4894 C.2       1 <0>         0.1112
     30 N3          5.8074    0.1804    3.1829 N.2       1 <0>        -0.4840
     31 C22         6.8517    0.0254    2.3756 C.2       1 <0>         0.2507
     32 N4          6.3904   -0.2210    1.1096 N.pl3     1 <0>        -0.3475
     33 C23         7.2618   -0.4247    0.0817 C.2       1 <0>         0.0484
     34 C24         8.5956   -0.3906    0.2936 C.2       1 <0>        -0.1213
     35 C25         9.1001   -0.1446    1.5800 C.2       1 <0>        -0.0861
     36 C26         8.2387    0.0687    2.6129 C.2       1 <0>        -0.0781
     37 H2          0.9716    1.6500    0.4197 H         1 <0>         0.0786
     38 H3         -0.5679    1.7852   -0.4634 H         1 <0>         0.0763
     39 H4         -0.5711    1.4505    1.2848 H         1 <0>         0.0807
     40 H5         -1.4930   -0.5866   -2.1750 H         1 <0>         0.1595
     41 H6         -3.7958   -1.4408   -2.3431 H         1 <0>         0.1416
     42 H7         -3.9450   -1.8801    1.8963 H         1 <0>         0.1457
     43 H8         -5.9728   -1.9741    0.5657 H         1 <0>         0.1423
     44 H9         -5.9107   -1.7905   -1.2037 H         1 <0>         0.1419
     45 H10        -5.3389   -3.6514   -2.5863 H         1 <0>         0.1355
     46 H11        -3.7481   -3.6061   -1.7904 H         1 <0>         0.1397
     47 H12        -4.1623   -5.8197   -2.8299 H         1 <0>         0.1252
     48 H13        -4.0478   -5.9571   -1.0582 H         1 <0>         0.1003
     49 H14        -6.6219   -5.8207   -2.6957 H         1 <0>         0.1020
     50 H15        -7.7570   -6.1279   -0.5312 H         1 <0>         0.1259
     51 H16        -6.1876   -6.1405    0.3102 H         1 <0>         0.1010
     52 H17        -7.2570   -3.9070    0.4534 H         1 <0>         0.1402
     53 H18        -7.3145   -3.8208   -1.3229 H         1 <0>         0.1354
     54 H19         2.1578   -0.0428    0.9484 H         1 <0>         0.1552
     55 H20         4.1379   -1.5353   -4.3234 H         1 <0>         0.3981
     56 H21         2.8735   -1.7199   -5.4142 H         1 <0>         0.4093
     57 H22         3.6814    0.1273    2.8870 H         1 <0>         0.1908
     58 H23         6.8825   -0.6154   -0.9113 H         1 <0>         0.1601
     59 H24         9.2757   -0.5536   -0.5293 H         1 <0>         0.1616
     60 H25        10.1666   -0.1183    1.7486 H         1 <0>         0.1541
     61 H26         8.6160    0.2574    3.6071 H         1 <0>         0.1620
     62 H27        -4.8695   -4.1017    0.2740 H         1 <0>         0.4243
@<TRIPOS>BOND
     1    1    2 1
     2    1   37 1
     3    1   38 1
     4    1   39 1
     5    2    3 1
     6    2    4 1
     7    2   19 1
     8    4    9 ar
     9    4    5 ar
    10    5    6 ar
    11    5   40 1
    12    6    7 ar
    13    6   41 1
    14    7    8 ar
    15    7   11 1
    16    8    9 ar
    17    8   42 1
    18    9   10 1
    19   11   12 1
    20   11   43 1
    21   11   44 1
    22   12   17 1
    23   12   13 1
    24   12   62 1
    25   13   14 1
    26   13   45 1
    27   13   46 1
    28   14   15 1
    29   14   47 1
    30   14   48 1
    31   15   16 1
    32   15   18 1
    33   15   49 1
    34   16   17 1
    35   16   50 1
    36   16   51 1
    37   17   52 1
    38   17   53 1
    39   19   20 1
    40   20   24 2
    41   20   21 1
    42   21   22 2
    43   21   54 1
    44   22   23 1
    45   22   28 1
    46   23   24 1
    47   24   25 1
    48   25   26 2
    49   25   27 am
    50   27   55 1
    51   27   56 1
    52   28   32 1
    53   28   29 2
    54   29   30 1
    55   29   57 1
    56   30   31 2
    57   31   36 1
    58   31   32 1
    59   32   33 1
    60   33   34 2
    61   33   58 1
    62   34   35 1
    63   34   59 1
    64   35   36 2
    65   35   60 1
    66   36   61 1
@<TRIPOS>MOLECULE
CHEMBL563469__1
   63    67     0     0     0
SMALL
USER_CHARGES

@<TRIPOS>ATOM
      1 C1          0.2924    1.2790   -0.1308 C.3       1 <0>        -0.1809
      2 C2          0.0646   -0.2292   -0.0104 C.3       1 <0>         0.1101
      3 H1          0.5180   -0.7343   -0.8632 H         1 <0>         0.0940
      4 C3          0.6932   -0.7320    1.2636 C.ar      1 <0>        -0.0503
      5 C4         -0.0724   -0.8641    2.4070 C.ar      1 <0>        -0.0701
      6 C5          0.5040   -1.3253    3.5755 C.ar      1 <0>        -0.0892
      7 C6          1.8466   -1.6547    3.6017 C.ar      1 <0>        -0.1416
      8 C7          2.6130   -1.5230    2.4593 C.ar      1 <0>        -0.0837
      9 C8          2.0352   -1.0668    1.2876 C.ar      1 <0>        -0.0266
     10 Cl1         2.9958   -0.9074   -0.1496 Cl        1 <0>        -0.0428
     11 C9          2.4744   -2.1570    4.8763 C.3       1 <0>         0.0432
     12 N1          2.3662   -3.6210    4.9316 N.4       1 <0>        -0.3860
     13 C10         0.9511   -4.0029    5.0091 C.3       1 <0>        -0.0104
     14 C11         0.8284   -5.5280    4.9853 C.3       1 <0>        -0.1748
     15 C12         1.5832   -6.1141    6.1819 C.3       1 <0>         0.0851
     16 C13         3.0412   -5.6482    6.1312 C.3       1 <0>        -0.1769
     17 C14         3.0818   -4.1187    6.1125 C.3       1 <0>        -0.0027
     18 F1          1.5363   -7.5112    6.1259 F         1 <0>        -0.1884
     19 O1         -1.3386   -0.4987    0.0122 O.3       1 <0>        -0.2607
     20 C15        -1.9649   -0.6067   -1.1879 C.2       1 <0>         0.1811
     21 C16        -1.2942   -0.3504   -2.3536 C.2       1 <0>        -0.1914
     22 C17        -1.9771   -0.4741   -3.5570 C.2       1 <0>        -0.0801
     23 S1         -3.6073   -0.9651   -3.0209 S.3       1 <0>         0.1685
     24 C18        -3.3053   -0.9869   -1.2617 C.2       1 <0>        -0.2466
     25 C19        -4.1957   -1.3053   -0.2129 C.2       1 <0>         0.6069
     26 O2         -3.8142   -1.2651    0.9436 O.2       1 <0>        -0.5127
     27 N2         -5.4676   -1.6537   -0.4912 N.am      1 <0>        -0.8473
     28 C20        -1.4839   -0.2557   -4.9220 C.2       1 <0>         0.0700
     29 C21        -0.1846    0.0268   -5.2952 C.2       1 <0>         0.1140
     30 N3         -0.1495    0.1535   -6.6166 N.pl3     1 <0>        -0.4959
     31 C22        -1.3665   -0.0338   -7.1169 C.cat     1 <0>         0.3086
     32 N4         -2.2259   -0.2983   -6.0835 N.pl3     1 <0>        -0.3218
     33 C23        -3.5462   -0.5360   -6.3236 C.2       1 <0>         0.0774
     34 C24        -4.0301   -0.5185   -7.5848 C.2       1 <0>        -0.0944
     35 C25        -3.1747   -0.2547   -8.6657 C.2       1 <0>        -0.0120
     36 C26        -1.8553   -0.0074   -8.4368 C.2       1 <0>        -0.1147
     37 H2          1.3627    1.4846   -0.1480 H         1 <0>         0.0844
     38 H3         -0.1623    1.6427   -1.0523 H         1 <0>         0.0742
     39 H4         -0.1610    1.7842    0.7221 H         1 <0>         0.0816
     40 H5         -1.1210   -0.6066    2.3873 H         1 <0>         0.1593
     41 H6         -0.0944   -1.4280    4.4687 H         1 <0>         0.1445
     42 H7          3.6618   -1.7801    2.4799 H         1 <0>         0.1479
     43 H8          3.5254   -1.8691    4.9016 H         1 <0>         0.1441
     44 H9          1.9578   -1.7219    5.7318 H         1 <0>         0.1440
     45 H10         0.5216   -3.6188    5.9343 H         1 <0>         0.1366
     46 H11         0.4146   -3.5824    4.1585 H         1 <0>         0.1374
     47 H12        -0.2229   -5.8096    5.0447 H         1 <0>         0.1254
     48 H13         1.2574   -5.9133    4.0602 H         1 <0>         0.0995
     49 H14         1.1225   -5.7696    7.1077 H         1 <0>         0.1029
     50 H15         3.5715   -6.0158    7.0097 H         1 <0>         0.1277
     51 H16         3.5160   -6.0360    5.2299 H         1 <0>         0.1009
     52 H17         4.1184   -3.7836    6.0766 H         1 <0>         0.1412
     53 H18         2.6070   -3.7321    7.0143 H         1 <0>         0.1368
     54 H19        -0.2548   -0.0574   -2.3379 H         1 <0>         0.1615
     55 H20        -5.7713   -1.6857   -1.4119 H         1 <0>         0.3982
     56 H21        -6.0793   -1.8724    0.2291 H         1 <0>         0.4166
     57 H22         0.6580    0.1276   -4.6272 H         1 <0>         0.2350
     58 H23        -4.2117   -0.7407   -5.4980 H         1 <0>         0.1892
     59 H24        -5.0784   -0.7085   -7.7618 H         1 <0>         0.1906
     60 H25        -3.5623   -0.2416   -9.6737 H         1 <0>         0.1829
     61 H26        -1.1877    0.1952   -9.2613 H         1 <0>         0.1871
     62 H27         2.7749   -4.0191    4.0994 H         1 <0>         0.4236
     63 H28         0.6439    0.3532   -7.1377 H         1 <0>         0.4696
@<TRIPOS>BOND
     1    1    2 1
     2    1   37 1
     3    1   38 1
     4    1   39 1
     5    2    3 1
     6    2    4 1
     7    2   19 1
     8    4    9 ar
     9    4    5 ar
    10    5    6 ar
    11    5   40 1
    12    6    7 ar
    13    6   41 1
    14    7    8 ar
    15    7   11 1
    16    8    9 ar
    17    8   42 1
    18    9   10 1
    19   11   12 1
    20   11   43 1
    21   11   44 1
    22   12   17 1
    23   12   13 1
    24   12   62 1
    25   13   14 1
    26   13   45 1
    27   13   46 1
    28   14   15 1
    29   14   47 1
    30   14   48 1
    31   15   16 1
    32   15   18 1
    33   15   49 1
    34   16   17 1
    35   16   50 1
    36   16   51 1
    37   17   52 1
    38   17   53 1
    39   19   20 1
    40   20   24 2
    41   20   21 1
    42   21   22 2
    43   21   54 1
    44   22   23 1
    45   22   28 1
    46   23   24 1
    47   24   25 1
    48   25   26 2
    49   25   27 am
    50   27   55 1
    51   27   56 1
    52   28   32 1
    53   28   29 2
    54   29   30 1
    55   29   57 1
    56   30   31 2
    57   30   63 1
    58   31   36 1
    59   31   32 1
    60   32   33 1
    61   33   34 2
    62   33   58 1
    63   34   35 1
    64   34   59 1
    65   35   36 2
    66   35   60 1
    67   36   61 1
@<TRIPOS>MOLECULE
CHEMBL1094402
   53    57     0     0     0
SMALL
USER_CHARGES

@<TRIPOS>ATOM
      1 C1          0.0102    1.3332   -0.6532 C.ar      1 <0>        -0.1372
      2 C2          1.0019    1.9259    0.1067 C.ar      1 <0>        -0.0987
      3 C3          2.2003    1.2710    0.3128 C.ar      1 <0>        -0.1491
      4 C4          2.4086    0.0156   -0.2438 C.ar      1 <0>         0.1627
      5 C5          1.4102   -0.5771   -1.0062 C.ar      1 <0>        -0.1144
      6 C6          0.2143    0.0834   -1.2087 C.ar      1 <0>        -0.0996
      7 N1          3.6207   -0.6499   -0.0375 N.pl3     1 <0>        -0.6370
      8 C7          3.6446   -2.0317    0.0595 C.ar      1 <0>         0.5630
      9 N2          2.4999   -2.6999    0.0608 N.ar      1 <0>        -0.5504
     10 C8          2.4711   -4.0197    0.1678 C.ar      1 <0>         0.1979
     11 C9          3.6630   -4.7124    0.2701 C.ar      1 <0>        -0.2152
     12 C10         4.8553   -3.9751    0.2373 C.ar      1 <0>         0.2911
     13 N3          4.8126   -2.6546    0.1432 N.ar      1 <0>        -0.5580
     14 C11         6.1185   -4.7325    0.2600 C.2       1 <0>         0.0301
     15 C12         6.1161   -6.0922    0.0330 C.2       1 <0>        -0.1028
     16 C13         7.4485   -6.4934    0.1364 C.2       1 <0>        -0.0178
     17 N4          8.1644   -5.4066    0.3843 N.2       1 <0>        -0.2419
     18 N5          7.4018   -4.3668    0.4464 N.pl3     1 <0>        -0.2300
     19 C14         7.8621   -2.9964    0.6838 C.3       1 <0>         0.1422
     20 C15         8.8335   -2.5855   -0.4246 C.3       1 <0>        -0.1242
     21 C16         9.3143   -1.1543   -0.1767 C.3       1 <0>        -0.1149
     22 C17        10.0245   -1.0821    1.1766 C.3       1 <0>        -0.1243
     23 C18         9.0532   -1.4930    2.2849 C.3       1 <0>        -0.1152
     24 C19         8.5724   -2.9242    2.0370 C.3       1 <0>        -0.1269
     25 C20         7.9639   -7.8709   -0.0038 C.2       1 <0>         0.6127
     26 O1          7.1973   -8.7864   -0.2322 O.2       1 <0>        -0.5302
     27 N6          9.2839   -8.1126    0.1215 N.am      1 <0>        -0.8414
     28 C21         4.8624   -6.8598   -0.2697 C.3       1 <0>        -0.0499
     29 C22         3.6735   -6.2044    0.4342 C.3       1 <0>        -0.0640
     30 H1         -0.9276    1.8456   -0.8095 H         1 <0>         0.1228
     31 H2          0.8393    2.9020    0.5392 H         1 <0>         0.1258
     32 H3          2.9747    1.7348    0.9058 H         1 <0>         0.1233
     33 H4          1.5691   -1.5530   -1.4406 H         1 <0>         0.1339
     34 H5         -0.5624   -0.3769   -1.8014 H         1 <0>         0.1249
     35 H6          4.4450   -0.1441    0.0378 H         1 <0>         0.4224
     36 H7          1.5290   -4.5477    0.1754 H         1 <0>         0.1778
     37 H8          7.0066   -2.3210    0.6860 H         1 <0>         0.1290
     38 H9          9.6890   -3.2610   -0.4267 H         1 <0>         0.0792
     39 H10         8.3275   -2.6370   -1.3887 H         1 <0>         0.0691
     40 H11        10.0063   -0.8616   -0.9663 H         1 <0>         0.0732
     41 H12         8.4588   -0.4789   -0.1745 H         1 <0>         0.0670
     42 H13        10.8800   -1.7576    1.1744 H         1 <0>         0.0668
     43 H14        10.3671   -0.0625    1.3532 H         1 <0>         0.0691
     44 H15         9.5591   -1.4416    3.2490 H         1 <0>         0.0732
     45 H16         8.1976   -0.8176    2.2871 H         1 <0>         0.0662
     46 H17         7.8803   -3.2169    2.8266 H         1 <0>         0.0677
     47 H18         9.4279   -3.5996    2.0349 H         1 <0>         0.0803
     48 H19         9.8955   -7.3821    0.3037 H         1 <0>         0.4076
     49 H20         9.6222   -9.0170    0.0294 H         1 <0>         0.4078
     50 H21         4.6899   -6.8627   -1.3459 H         1 <0>         0.0826
     51 H22         4.9715   -7.8857    0.0821 H         1 <0>         0.1025
     52 H23         3.7176   -6.4423    1.4970 H         1 <0>         0.0816
     53 H24         2.7506   -6.6114    0.0212 H         1 <0>         0.0893
@<TRIPOS>BOND
     1    1    6 ar
     2    1    2 ar
     3    1   30 1
     4    2    3 ar
     5    2   31 1
     6    3    4 ar
     7    3   32 1
     8    4    5 ar
     9    4    7 1
    10    5    6 ar
    11    5   33 1
    12    6   34 1
    13    7    8 1
    14    7   35 1
    15    8   13 ar
    16    8    9 ar
    17    9   10 ar
    18   10   11 ar
    19   10   36 1
    20   11   29 1
    21   11   12 ar
    22   12   13 ar
    23   12   14 1
    24   14   18 1
    25   14   15 2
    26   15   16 1
    27   15   28 1
    28   16   17 2
    29   16   25 1
    30   17   18 1
    31   18   19 1
    32   19   24 1
    33   19   20 1
    34   19   37 1
    35   20   21 1
    36   20   38 1
    37   20   39 1
    38   21   22 1
    39   21   40 1
    40   21   41 1
    41   22   23 1
    42   22   42 1
    43   22   43 1
    44   23   24 1
    45   23   44 1
    46   23   45 1
    47   24   46 1
    48   24   47 1
    49   25   26 2
    50   25   27 am
    51   27   48 1
    52   27   49 1
    53   28   29 1
    54   28   50 1
    55   28   51 1
    56   29   52 1
    57   29   53 1
@<TRIPOS>MOLECULE
CHEMBL1095709
   43    46     0     0     0
SMALL
USER_CHARGES

@<TRIPOS>ATOM
      1 C1          0.0102    1.3332   -0.6532 C.ar      1 <0>        -0.1364
      2 C2          1.0019    1.9259    0.1067 C.ar      1 <0>        -0.0986
      3 C3          2.2003    1.2710    0.3128 C.ar      1 <0>        -0.1481
      4 C4          2.4086    0.0156   -0.2438 C.ar      1 <0>         0.1615
      5 C5          1.4102   -0.5771   -1.0062 C.ar      1 <0>        -0.1141
      6 C6          0.2143    0.0834   -1.2087 C.ar      1 <0>        -0.0998
      7 N1          3.6207   -0.6499   -0.0375 N.pl3     1 <0>        -0.6363
      8 C7          3.6446   -2.0317    0.0595 C.ar      1 <0>         0.5665
      9 N2          2.4999   -2.6999    0.0608 N.ar      1 <0>        -0.5475
     10 C8          2.4711   -4.0197    0.1678 C.ar      1 <0>         0.2007
     11 C9          3.6630   -4.7124    0.2701 C.ar      1 <0>        -0.2124
     12 C10         4.8553   -3.9751    0.2373 C.ar      1 <0>         0.2881
     13 N3          4.8126   -2.6546    0.1432 N.ar      1 <0>        -0.5604
     14 C11         6.1185   -4.7325    0.2600 C.2       1 <0>         0.0449
     15 C12         6.1161   -6.0922    0.0330 C.2       1 <0>        -0.0951
     16 C13         7.4485   -6.4934    0.1364 C.2       1 <0>         0.0030
     17 N4          8.1644   -5.4066    0.3843 N.2       1 <0>        -0.2375
     18 N5          7.4018   -4.3668    0.4464 N.pl3     1 <0>        -0.2550
     19 C14         7.8621   -2.9964    0.6838 C.3       1 <0>         0.0777
     20 C15         7.8716   -2.7149    2.1876 C.3       1 <0>         0.4444
     21 F1          8.7340   -3.6135    2.8249 F         1 <0>        -0.1704
     22 F2          8.3112   -1.4062    2.4143 F         1 <0>        -0.1675
     23 F3          6.5783   -2.8675    2.6988 F         1 <0>        -0.1711
     24 C16         7.9639   -7.8709   -0.0038 C.2       1 <0>         0.6123
     25 O1          7.1973   -8.7864   -0.2322 O.2       1 <0>        -0.5248
     26 N6          9.2839   -8.1126    0.1215 N.am      1 <0>        -0.8386
     27 C17         4.8624   -6.8598   -0.2697 C.3       1 <0>        -0.0509
     28 C18         3.6735   -6.2044    0.4342 C.3       1 <0>        -0.0656
     29 H1         -0.9276    1.8456   -0.8095 H         1 <0>         0.1230
     30 H2          0.8393    2.9020    0.5392 H         1 <0>         0.1260
     31 H3          2.9747    1.7348    0.9058 H         1 <0>         0.1238
     32 H4          1.5691   -1.5530   -1.4406 H         1 <0>         0.1340
     33 H5         -0.5624   -0.3769   -1.8014 H         1 <0>         0.1251
     34 H6          4.4450   -0.1441    0.0378 H         1 <0>         0.4228
     35 H7          1.5290   -4.5477    0.1754 H         1 <0>         0.1793
     36 H8          8.8698   -2.8775    0.2855 H         1 <0>         0.1513
     37 H9          7.1903   -2.2963    0.1873 H         1 <0>         0.1594
     38 H10         9.8955   -7.3821    0.3037 H         1 <0>         0.4087
     39 H11         9.6222   -9.0170    0.0294 H         1 <0>         0.4100
     40 H12         4.6899   -6.8627   -1.3459 H         1 <0>         0.0867
     41 H13         4.9715   -7.8857    0.0821 H         1 <0>         0.1057
     42 H14         3.7176   -6.4423    1.4970 H         1 <0>         0.0834
     43 H15         2.7506   -6.6114    0.0212 H         1 <0>         0.0920
@<TRIPOS>BOND
     1    1    6 ar
     2    1    2 ar
     3    1   29 1
     4    2    3 ar
     5    2   30 1
     6    3    4 ar
     7    3   31 1
     8    4    5 ar
     9    4    7 1
    10    5    6 ar
    11    5   32 1
    12    6   33 1
    13    7    8 1
    14    7   34 1
    15    8   13 ar
    16    8    9 ar
    17    9   10 ar
    18   10   11 ar
    19   10   35 1
    20   11   28 1
    21   11   12 ar
    22   12   13 ar
    23   12   14 1
    24   14   18 1
    25   14   15 2
    26   15   16 1
    27   15   27 1
    28   16   17 2
    29   16   24 1
    30   17   18 1
    31   18   19 1
    32   19   20 1
    33   19   36 1
    34   19   37 1
    35   20   21 1
    36   20   22 1
    37   20   23 1
    38   24   25 2
    39   24   26 am
    40   26   38 1
    41   26   39 1
    42   27   28 1
    43   27   40 1
    44   27   41 1
    45   28   42 1
    46   28   43 1
@<TRIPOS>MOLECULE
CHEMBL1094477
   43    46     0     0     0
SMALL
USER_CHARGES

@<TRIPOS>ATOM
      1 C1         -1.1465    1.0119    0.0359 C.3       1 <0>        -0.1156
      2 C2         -0.2991   -0.2343    0.0338 C.ar      1 <0>        -0.1154
      3 C3         -0.0668   -0.9105   -1.1480 C.ar      1 <0>        -0.1007
      4 C4          0.7105   -2.0540   -1.1507 C.ar      1 <0>        -0.1329
      5 C5          1.2575   -2.5248    0.0292 C.ar      1 <0>        -0.1051
      6 C6          1.0288   -1.8539    1.2141 C.ar      1 <0>        -0.1113
      7 C7          0.2537   -0.7010    1.2193 C.ar      1 <0>         0.1616
      8 N1          0.0256   -0.0155    2.4163 N.pl3     1 <0>        -0.6341
      9 C8         -0.0582   -0.7142    3.6096 C.ar      1 <0>         0.5626
     10 N2         -0.0340   -2.0393    3.5864 N.ar      1 <0>        -0.5497
     11 C9         -0.1280   -2.7511    4.6993 C.ar      1 <0>         0.1981
     12 C10        -0.2437   -2.0942    5.9101 C.ar      1 <0>        -0.2150
     13 C11        -0.2379   -0.6921    5.8990 C.ar      1 <0>         0.2906
     14 N3         -0.1552   -0.0412    4.7484 N.ar      1 <0>        -0.5583
     15 C12        -0.2746   -0.0062    7.2022 C.2       1 <0>         0.0313
     16 C13        -0.0348   -0.7097    8.3632 C.2       1 <0>        -0.1022
     17 C14        -0.1566    0.2185    9.3978 C.2       1 <0>        -0.0152
     18 N4         -0.4268    1.3896    8.8405 N.2       1 <0>        -0.2469
     19 N5         -0.4859    1.2765    7.5559 N.pl3     1 <0>        -0.2383
     20 C15        -0.7435    2.3768    6.6235 C.3       1 <0>         0.0808
     21 C16        -0.0112   -0.0534   10.8427 C.2       1 <0>         0.6125
     22 O1          0.2394   -1.1791   11.2272 O.2       1 <0>        -0.5291
     23 N6         -0.1565    0.9466   11.7345 N.am      1 <0>        -0.8410
     24 C17         0.2961   -2.1737    8.3684 C.3       1 <0>        -0.0502
     25 C18        -0.3939   -2.8629    7.1906 C.3       1 <0>        -0.0642
     26 H1         -0.5124    1.8827   -0.1301 H         1 <0>         0.0707
     27 H2         -1.8899    0.9470   -0.7586 H         1 <0>         0.0720
     28 H3         -1.6502    1.1072    0.9978 H         1 <0>         0.0616
     29 H4         -0.4930   -0.5458   -2.0709 H         1 <0>         0.1253
     30 H5          0.8907   -2.5808   -2.0761 H         1 <0>         0.1229
     31 H6          1.8639   -3.4185    0.0237 H         1 <0>         0.1245
     32 H7          1.4556   -2.2225    2.1352 H         1 <0>         0.1352
     33 H8         -0.0740    0.9494    2.4113 H         1 <0>         0.4224
     34 H9         -0.1141   -3.8303    4.6615 H         1 <0>         0.1781
     35 H10        -1.8166    2.4662    6.4545 H         1 <0>         0.0884
     36 H11        -0.3634    3.3072    7.0455 H         1 <0>         0.1001
     37 H12        -0.2422    2.1757    5.6768 H         1 <0>         0.1119
     38 H13        -0.3565    1.8448   11.4277 H         1 <0>         0.4079
     39 H14        -0.0610    0.7681   12.6832 H         1 <0>         0.4084
     40 H15         1.3751   -2.3019    8.2821 H         1 <0>         0.0835
     41 H16        -0.0478   -2.6198    9.3016 H         1 <0>         0.1030
     42 H17        -1.4550   -2.9692    7.4161 H         1 <0>         0.0819
     43 H18         0.0383   -3.8549    7.0595 H         1 <0>         0.0898
@<TRIPOS>BOND
     1    1    2 1
     2    1   26 1
     3    1   27 1
     4    1   28 1
     5    2    7 ar
     6    2    3 ar
     7    3    4 ar
     8    3   29 1
     9    4    5 ar
    10    4   30 1
    11    5    6 ar
    12    5   31 1
    13    6    7 ar
    14    6   32 1
    15    7    8 1
    16    8    9 1
    17    8   33 1
    18    9   14 ar
    19    9   10 ar
    20   10   11 ar
    21   11   12 ar
    22   11   34 1
    23   12   25 1
    24   12   13 ar
    25   13   14 ar
    26   13   15 1
    27   15   19 1
    28   15   16 2
    29   16   17 1
    30   16   24 1
    31   17   18 2
    32   17   21 1
    33   18   19 1
    34   19   20 1
    35   20   35 1
    36   20   36 1
    37   20   37 1
    38   21   22 2
    39   21   23 am
    40   23   38 1
    41   23   39 1
    42   24   25 1
    43   24   40 1
    44   24   41 1
    45   25   42 1
    46   25   43 1
@<TRIPOS>MOLECULE
CHEMBL597393
   46    49     0     0     0
SMALL
USER_CHARGES

@<TRIPOS>ATOM
      1 C1         -0.7039    2.0316   -1.0088 C.3       1 <0>         0.0238
      2 O1         -0.6422    0.6171   -0.8157 O.3       1 <0>        -0.3105
      3 C2          0.0792   -0.0974   -1.7178 C.ar      1 <0>         0.1745
      4 C3          0.7208    0.5519   -2.7665 C.ar      1 <0>        -0.2211
      5 C4          1.4482   -0.1745   -3.6780 C.ar      1 <0>        -0.0074
      6 C5          1.5537   -1.5701   -3.5625 C.ar      1 <0>        -0.1174
      7 C6          0.9160   -2.2201   -2.5122 C.ar      1 <0>         0.2258
      8 C7          0.1807   -1.4700   -1.5908 C.ar      1 <0>        -0.1878
      9 N1          0.9670   -3.5879   -2.2991 N.am      1 <0>        -0.6618
     10 C8          0.8712   -4.5332   -3.2278 C.2       1 <0>         0.5295
     11 O2          0.8892   -5.6974   -2.8883 O.2       1 <0>        -0.5208
     12 C9          0.7405   -4.1992   -4.6883 C.3       1 <0>        -0.0808
     13 C10         1.9867   -3.4863   -5.1362 C.ar      1 <0>        -0.2422
     14 C11         2.3528   -2.2641   -4.5938 C.ar      1 <0>         0.2774
     15 N2          3.4797   -1.6844   -5.0248 N.ar      1 <0>        -0.5546
     16 C12         4.2229   -2.2636   -5.9526 C.ar      1 <0>         0.5656
     17 N3          3.8886   -3.4280   -6.4898 N.ar      1 <0>        -0.5521
     18 C13         2.7892   -4.0587   -6.1076 C.ar      1 <0>         0.2117
     19 N4          5.3830   -1.6355   -6.3749 N.pl3     1 <0>        -0.6333
     20 C14         6.1224   -2.1712   -7.4365 C.ar      1 <0>         0.1426
     21 C15         5.4719   -2.8179   -8.4791 C.ar      1 <0>        -0.0791
     22 C16         6.2003   -3.3474   -9.5274 C.ar      1 <0>        -0.1740
     23 C17         7.5810   -3.2339   -9.5406 C.ar      1 <0>         0.0893
     24 C18         8.2358   -2.5861   -8.4976 C.ar      1 <0>         0.0960
     25 C19         7.5054   -2.0508   -7.4496 C.ar      1 <0>        -0.1353
     26 O3          9.5911   -2.4747   -8.5096 O.3       1 <0>        -0.4836
     27 O4          8.2968   -3.7563  -10.5733 O.3       1 <0>        -0.3082
     28 C20         7.5596   -4.4080  -11.6095 C.3       1 <0>         0.0247
     29 H1          0.3031    2.4474   -0.9738 H         1 <0>         0.0606
     30 H2         -1.1524    2.2467   -1.9787 H         1 <0>         0.0605
     31 H3         -1.3096    2.4797   -0.2210 H         1 <0>         0.1051
     32 H4          0.6473    1.6249   -2.8646 H         1 <0>         0.1397
     33 H5          1.9439    0.3331   -4.4922 H         1 <0>         0.1396
     34 H6         -0.3172   -1.9688   -0.7725 H         1 <0>         0.1440
     35 H7          1.0845   -3.8844   -1.3830 H         1 <0>         0.4118
     36 H8          0.6180   -5.1170   -5.2634 H         1 <0>         0.1195
     37 H9         -0.1242   -3.5530   -4.8394 H         1 <0>         0.1080
     38 H10         2.5227   -5.0082   -6.5479 H         1 <0>         0.1784
     39 H11         5.6831   -0.8247   -5.9353 H         1 <0>         0.4247
     40 H12         4.3957   -2.9073   -8.4706 H         1 <0>         0.1401
     41 H13         5.6926   -3.8507  -10.3370 H         1 <0>         0.1366
     42 H14         8.0115   -1.5437   -6.6414 H         1 <0>         0.1390
     43 H15         9.9162   -1.6760   -8.9471 H         1 <0>         0.3879
     44 H16         7.0014   -5.2439  -11.1877 H         1 <0>         0.0566
     45 H17         6.8660   -3.6997  -12.0626 H         1 <0>         0.0555
     46 H18         8.2490   -4.7777  -12.3685 H         1 <0>         0.1015
@<TRIPOS>BOND
     1    1    2 1
     2    1   29 1
     3    1   30 1
     4    1   31 1
     5    2    3 1
     6    3    8 ar
     7    3    4 ar
     8    4    5 ar
     9    4   32 1
    10    5    6 ar
    11    5   33 1
    12    6   14 1
    13    6    7 ar
    14    7    8 ar
    15    7    9 1
    16    8   34 1
    17    9   10 am
    18    9   35 1
    19   10   11 2
    20   10   12 1
    21   12   13 1
    22   12   36 1
    23   12   37 1
    24   13   18 ar
    25   13   14 ar
    26   14   15 ar
    27   15   16 ar
    28   16   17 ar
    29   16   19 1
    30   17   18 ar
    31   18   38 1
    32   19   20 1
    33   19   39 1
    34   20   25 ar
    35   20   21 ar
    36   21   22 ar
    37   21   40 1
    38   22   23 ar
    39   22   41 1
    40   23   24 ar
    41   23   27 1
    42   24   25 ar
    43   24   26 1
    44   25   42 1
    45   26   43 1
    46   27   28 1
    47   28   44 1
    48   28   45 1
    49   28   46 1
