@<TRIPOS>MOLECULE
ZINC04677121
   57    60     0     0     0
SMALL
USER_CHARGES
4-[[2,6-bis(1-piperidyl)pyrimidin-4-yl]aminoiminomethyl]benzene-1,2-diol
@<TRIPOS>ATOM
      1 C1          3.9736   -2.1113    0.6196 C.ar      1 <0>        -0.0710
      2 C2          4.4793   -2.4343    1.8619 C.ar      1 <0>        -0.1337
      3 C3          5.5546   -3.3031    1.9720 C.ar      1 <0>         0.0959
      4 C4          6.1259   -3.8586    0.8290 C.ar      1 <0>         0.0774
      5 C5          5.6209   -3.5446   -0.4186 C.ar      1 <0>        -0.1036
      6 C6          4.5373   -2.6692   -0.5301 C.ar      1 <0>        -0.0419
      7 C7          3.9943   -2.3306   -1.8584 C.2       1 <0>         0.0934
      8 N1          2.9878   -1.5173   -1.9600 N.2       1 <0>        -0.2065
      9 N2          2.4718   -1.1956   -3.2222 N.pl3     1 <0>        -0.5574
     10 C8          1.3970   -0.3271   -3.3308 C.ar      1 <0>         0.4881
     11 C9          0.8772   -0.0007   -4.5805 C.ar      1 <0>        -0.3287
     12 C10        -0.2021    0.8759   -4.6404 C.ar      1 <0>         0.4088
     13 N3         -0.7023    1.3661   -3.5082 N.ar      1 <0>        -0.5921
     14 C11        -0.1787    1.0375   -2.3368 C.ar      1 <0>         0.5521
     15 N4          0.8481    0.2066   -2.2412 N.ar      1 <0>        -0.5870
     16 N5         -0.7225    1.5721   -1.1820 N.pl3     1 <0>        -0.4562
     17 C12        -0.0127    1.0858    0.0080 C.3       1 <0>         0.0732
     18 C13        -0.7286    1.5791    1.2674 C.3       1 <0>        -0.1216
     19 C14        -0.7644    3.1099    1.2618 C.3       1 <0>        -0.1250
     20 C15        -1.4660    3.5913   -0.0113 C.3       1 <0>        -0.1183
     21 C16        -0.7289    3.0396   -1.2338 C.3       1 <0>         0.0698
     22 N6         -0.7526    1.2295   -5.8624 N.pl3     1 <0>        -0.4698
     23 C17         0.2676    1.7928   -6.7559 C.3       1 <0>         0.0618
     24 C18        -0.3414    2.0356   -8.1388 C.3       1 <0>        -0.1187
     25 C19        -1.5222    3.0016   -8.0086 C.3       1 <0>        -0.1253
     26 C20        -2.5478    2.4135   -7.0355 C.3       1 <0>        -0.1223
     27 C21        -1.8748    2.1598   -5.6846 C.3       1 <0>         0.0672
     28 O1          7.1803   -4.7101    0.9410 O.3       1 <0>        -0.4858
     29 O2          6.0528   -3.6132    3.1984 O.3       1 <0>        -0.4876
     30 H1          3.1392   -1.4307    0.5365 H         1 <0>         0.1433
     31 H2          4.0398   -2.0058    2.7505 H         1 <0>         0.1384
     32 H3          6.0625   -3.9751   -1.3053 H         1 <0>         0.1390
     33 H4          4.4340   -2.7593   -2.7468 H         1 <0>         0.1209
     34 H5          2.8667   -1.5807   -4.0201 H         1 <0>         0.4004
     35 H6          1.3016   -0.4175   -5.4819 H         1 <0>         0.1426
     36 H7          0.0021   -0.0041    0.0020 H         1 <0>         0.0895
     37 H8          1.0099    1.4629    0.0003 H         1 <0>         0.0520
     38 H9         -1.7471    1.1912    1.2827 H         1 <0>         0.0720
     39 H10        -0.1928    1.2311    2.1505 H         1 <0>         0.0741
     40 H11         0.2538    3.4983    1.2857 H         1 <0>         0.0607
     41 H12        -1.3112    3.4647    2.1354 H         1 <0>         0.0683
     42 H13        -1.4570    4.6808   -0.0419 H         1 <0>         0.0740
     43 H14        -2.4961    3.2350   -0.0160 H         1 <0>         0.0756
     44 H15         0.2971    3.4074   -1.2358 H         1 <0>         0.0417
     45 H16        -1.2345    3.3688   -2.1416 H         1 <0>         0.0924
     46 H17         0.6275    2.7369   -6.3468 H         1 <0>         0.0481
     47 H18         1.0997    1.0942   -6.8431 H         1 <0>         0.0848
     48 H19        -0.6890    1.0898   -8.5544 H         1 <0>         0.0754
     49 H20         0.4118    2.4682   -8.7973 H         1 <0>         0.0750
     50 H21        -1.9860    3.1436   -8.9848 H         1 <0>         0.0688
     51 H22        -1.1685    3.9604   -7.6295 H         1 <0>         0.0615
     52 H23        -2.9301    1.4737   -7.4338 H         1 <0>         0.0720
     53 H24        -3.3709    3.1162   -6.9057 H         1 <0>         0.0740
     54 H25        -2.5988    1.7277   -4.9937 H         1 <0>         0.0901
     55 H26        -1.5049    3.1021   -5.2805 H         1 <0>         0.0512
     56 H27         8.0427   -4.2732    0.9197 H         1 <0>         0.3886
     57 H28         6.7542   -3.0196    3.4996 H         1 <0>         0.3903
@<TRIPOS>BOND
     1    1    6 ar
     2    1    2 ar
     3    1   30 1
     4    2    3 ar
     5    2   31 1
     6    3    4 ar
     7    3   29 1
     8    4    5 ar
     9    4   28 1
    10    5    6 ar
    11    5   32 1
    12    6    7 1
    13    7    8 2
    14    7   33 1
    15    8    9 1
    16    9   10 1
    17    9   34 1
    18   10   15 ar
    19   10   11 ar
    20   11   12 ar
    21   11   35 1
    22   12   13 ar
    23   12   22 1
    24   13   14 ar
    25   14   15 ar
    26   14   16 1
    27   16   21 1
    28   16   17 1
    29   17   18 1
    30   17   36 1
    31   17   37 1
    32   18   19 1
    33   18   38 1
    34   18   39 1
    35   19   20 1
    36   19   40 1
    37   19   41 1
    38   20   21 1
    39   20   42 1
    40   20   43 1
    41   21   44 1
    42   21   45 1
    43   22   27 1
    44   22   23 1
    45   23   24 1
    46   23   46 1
    47   23   47 1
    48   24   25 1
    49   24   48 1
    50   24   49 1
    51   25   26 1
    52   25   50 1
    53   25   51 1
    54   26   27 1
    55   26   52 1
    56   26   53 1
    57   27   54 1
    58   27   55 1
    59   28   56 1
    60   29   57 1
@<TRIPOS>MOLECULE
ZINC09442936
   60    62     0     0     0
SMALL
USER_CHARGES
5-ethyl-4-methyl-N'-[2-(7,7,9-trimethyl-1,3-dioxo-2,4-diazaspiro[4.5]dec-2-yl)acetyl]-thiophene-2-carbohydrazide
@<TRIPOS>ATOM
      1 C1         -6.0328   -2.3512   -8.8835 C.3       1 <0>        -0.1492
      2 C2         -5.1988   -3.5347   -8.3887 C.3       1 <0>        -0.0465
      3 C3         -5.1798   -3.5408   -6.8818 C.2       1 <0>        -0.1371
      4 C4         -6.0414   -4.1552   -6.0293 C.2       1 <0>        -0.1502
      5 C5         -5.8446   -4.0356   -4.6761 C.2       1 <0>        -0.0454
      6 C6         -4.7588   -3.2811   -4.2603 C.2       1 <0>        -0.2477
      7 S1         -4.0570   -2.7608   -5.8158 S.3       1 <0>         0.1426
      8 C7         -4.3082   -2.9831   -2.8977 C.2       1 <0>         0.6126
      9 O1         -4.9217   -3.4244   -1.9437 O.2       1 <0>        -0.5229
     10 N1         -3.2145   -2.2204   -2.7012 N.am      1 <0>        -0.5173
     11 N2         -2.7839   -1.9356   -1.3988 N.am      1 <0>        -0.5132
     12 C8         -1.6902   -1.1729   -1.2023 C.2       1 <0>         0.5032
     13 O2         -1.0788   -0.7331   -2.1530 O.2       1 <0>        -0.5229
     14 C9         -1.2270   -0.8665    0.1986 C.3       1 <0>         0.1115
     15 N3         -0.0278   -0.0268    0.1438 N.am      1 <0>        -0.5631
     16 C10        -0.0468    1.3220    0.1269 C.2       1 <0>         0.5374
     17 O3         -1.0215    2.0426    0.1486 O.2       1 <0>        -0.4561
     18 C11         1.4031    1.7456    0.0688 C.3       1 <0>         0.1315
     19 C12         1.6751    2.5349   -1.2070 C.3       1 <0>        -0.1102
     20 C13         3.1532    2.9297   -1.2608 C.3       1 <0>        -0.0917
     21 H1          3.7696    2.0308   -1.2674 H         1 <0>         0.0755
     22 C14         3.4985    3.7763   -0.0339 C.3       1 <0>        -0.1091
     23 C15         3.2438    2.9625    1.2365 C.3       1 <0>        -0.0604
     24 C16         1.7662    2.5677    1.3004 C.3       1 <0>        -0.1046
     25 C17         3.6001    3.8057    2.4625 C.3       1 <0>        -0.1414
     26 C18         4.1086    1.7006    1.2161 C.3       1 <0>        -0.1612
     27 C19         3.4190    3.7401   -2.5310 C.3       1 <0>        -0.1477
     28 N4          2.1446    0.4782    0.0584 N.am      1 <0>        -0.7163
     29 C20         1.2228   -0.5028    0.1046 C.2       1 <0>         0.7044
     30 O4          1.4958   -1.6871    0.1107 O.2       1 <0>        -0.5385
     31 C21        -7.1990   -4.9589   -6.5632 C.3       1 <0>        -0.0975
     32 H2         -7.0518   -2.4425   -8.5077 H         1 <0>         0.0609
     33 H3         -5.5941   -1.4212   -8.5219 H         1 <0>         0.0588
     34 H4         -6.0465   -2.3469   -9.9734 H         1 <0>         0.0679
     35 H5         -4.1797   -3.4434   -8.7645 H         1 <0>         0.0828
     36 H6         -5.6374   -4.4647   -8.7503 H         1 <0>         0.0921
     37 H7         -6.5072   -4.5085   -3.9663 H         1 <0>         0.1502
     38 H8         -2.7255   -1.8687   -3.4615 H         1 <0>         0.4322
     39 H9         -3.2728   -2.2873   -0.6385 H         1 <0>         0.4365
     40 H10        -0.9954   -1.7973    0.7164 H         1 <0>         0.1379
     41 H11        -2.0157   -0.3389    0.7349 H         1 <0>         0.1353
     42 H12         1.4320    1.9197   -2.0733 H         1 <0>         0.0785
     43 H13         1.0587    3.4339   -1.2161 H         1 <0>         0.0906
     44 H14         2.8761    4.6710   -0.0230 H         1 <0>         0.0709
     45 H15         4.5488    4.0650   -0.0758 H         1 <0>         0.0714
     46 H16         1.1511    3.4671    1.3308 H         1 <0>         0.0919
     47 H17         1.5875    1.9754    2.1978 H         1 <0>         0.0770
     48 H18         3.4177    3.2261    3.3675 H         1 <0>         0.0578
     49 H19         4.6522    4.0867    2.4169 H         1 <0>         0.0607
     50 H20         2.9841    4.7048    2.4766 H         1 <0>         0.0588
     51 H21         4.2264    1.3574    0.1883 H         1 <0>         0.0621
     52 H22         5.0881    1.9245    1.6389 H         1 <0>         0.0659
     53 H23         3.6276    0.9209    1.8066 H         1 <0>         0.0652
     54 H24         4.4712    4.0219   -2.5687 H         1 <0>         0.0596
     55 H25         3.1729    3.1369   -3.4049 H         1 <0>         0.0571
     56 H26         2.8021    4.6387   -2.5245 H         1 <0>         0.0584
     57 H27         3.1078    0.3690    0.0246 H         1 <0>         0.4429
     58 H28        -8.0675   -4.3109   -6.6811 H         1 <0>         0.0710
     59 H29        -6.9301   -5.3854   -7.5296 H         1 <0>         0.0689
     60 H30        -7.4366   -5.7617   -5.8653 H         1 <0>         0.0682
@<TRIPOS>BOND
     1    1    2 1
     2    1   32 1
     3    1   33 1
     4    1   34 1
     5    2    3 1
     6    2   35 1
     7    2   36 1
     8    3    7 1
     9    3    4 2
    10    4    5 1
    11    4   31 1
    12    5    6 2
    13    5   37 1
    14    6    7 1
    15    6    8 1
    16    8    9 2
    17    8   10 am
    18   10   11 1
    19   10   38 1
    20   11   12 am
    21   11   39 1
    22   12   13 2
    23   12   14 1
    24   14   15 1
    25   14   40 1
    26   14   41 1
    27   15   29 am
    28   15   16 am
    29   16   17 2
    30   16   18 1
    31   18   24 1
    32   18   19 1
    33   18   28 1
    34   19   20 1
    35   19   42 1
    36   19   43 1
    37   20   21 1
    38   20   22 1
    39   20   27 1
    40   22   23 1
    41   22   44 1
    42   22   45 1
    43   23   24 1
    44   23   25 1
    45   23   26 1
    46   24   46 1
    47   24   47 1
    48   25   48 1
    49   25   49 1
    50   25   50 1
    51   26   51 1
    52   26   52 1
    53   26   53 1
    54   27   54 1
    55   27   55 1
    56   27   56 1
    57   28   29 am
    58   28   57 1
    59   29   30 2
    60   31   58 1
    61   31   59 1
    62   31   60 1
@<TRIPOS>MOLECULE
ZINC17733733
   48    51     0     0     0
SMALL
USER_CHARGES
(4-carbamoyl-2-nitro-phenyl)methyl 6,7,8,9-tetrahydro-5H-carbazole-3-carboxylate
@<TRIPOS>ATOM
      1 C1        -12.3163   -0.7289    2.1106 C.ar      1 <0>        -0.0334
      2 C2        -11.1859   -0.6198    1.3270 C.ar      1 <0>        -0.1060
      3 C3        -11.2576   -0.8607   -0.0333 C.ar      1 <0>         0.0009
      4 C4        -12.4628   -1.2076   -0.6182 C.ar      1 <0>        -0.0452
      5 C5        -13.5992   -1.3258    0.1547 C.ar      1 <0>         0.0083
      6 C6        -13.5338   -1.0836    1.5279 C.ar      1 <0>        -0.1371
      7 C7        -14.7490   -1.2029    2.3615 C.2       1 <0>         0.5663
      8 O1        -15.8081   -1.5120    1.8513 O.2       1 <0>        -0.5236
      9 N1        -14.6825   -0.9688    3.6872 N.am      1 <0>        -0.8452
     10 N2        -12.5314   -1.4580   -2.0753 N.pl3     1 <0>         0.0256
     11 O2        -13.5915   -1.7635   -2.5915 O.2       1 <0>        -0.1425
     12 O3        -11.5278   -1.3587   -2.7583 O.3       1 <0>        -0.1547
     13 C8        -10.0190   -0.7386   -0.8831 C.3       1 <0>         0.1013
     14 O4         -8.8936   -0.3609   -0.0469 O.3       1 <0>        -0.3588
     15 C9         -7.7020   -0.2091   -0.6571 C.2       1 <0>         0.5155
     16 O5         -7.6058   -0.3874   -1.8550 O.2       1 <0>        -0.4976
     17 C10        -6.5140    0.1736    0.1294 C.ar      1 <0>        -0.1617
     18 C11        -6.6433    0.3744    1.5085 C.ar      1 <0>        -0.0506
     19 C12        -5.5823    0.7296    2.2983 C.ar      1 <0>        -0.1408
     20 C13        -4.3435    0.8894    1.6747 C.ar      1 <0>         0.1313
     21 C14        -4.1991    0.6887    0.2755 C.ar      1 <0>        -0.1187
     22 C15        -5.2851    0.3267   -0.5206 C.ar      1 <0>         0.0165
     23 C16        -2.8025    0.9359   -0.0210 C.2       1 <0>        -0.1486
     24 C17        -2.2007    1.2540    1.1449 C.2       1 <0>         0.0673
     25 N3         -3.1183    1.2293    2.1630 N.pl3     1 <0>        -0.5790
     26 H1         -2.9238    1.4245    3.0930 H         1 <0>         0.4182
     27 C18        -0.7305    1.5803    1.2686 C.3       1 <0>        -0.0577
     28 C19        -0.0127    1.0858    0.0080 C.3       1 <0>        -0.1154
     29 C20        -0.7539    1.5934   -1.2323 C.3       1 <0>        -0.1212
     30 C21        -2.0985    0.8664   -1.3522 C.3       1 <0>        -0.0502
     31 H2        -12.2592   -0.5399    3.1724 H         1 <0>         0.1507
     32 H3        -10.2430   -0.3454    1.7767 H         1 <0>         0.1655
     33 H4        -14.5384   -1.6003   -0.3023 H         1 <0>         0.1720
     34 H5        -13.8374   -0.7222    4.0943 H         1 <0>         0.4020
     35 H6        -15.4798   -1.0471    4.2341 H         1 <0>         0.4127
     36 H7        -10.1759    0.0231   -1.6468 H         1 <0>         0.1117
     37 H8         -9.8110   -1.6956   -1.3617 H         1 <0>         0.1115
     38 H9         -7.6131    0.2444    1.9656 H         1 <0>         0.1344
     39 H10        -5.6993    0.8801    3.3614 H         1 <0>         0.1361
     40 H11        -5.1827    0.1728   -1.5847 H         1 <0>         0.1471
     41 H12        -0.3170    1.0810    2.1448 H         1 <0>         0.0783
     42 H13        -0.6018    2.6585    1.3638 H         1 <0>         0.0832
     43 H14         0.0021   -0.0041    0.0020 H         1 <0>         0.0695
     44 H15         1.0098    1.4633    0.0003 H         1 <0>         0.0743
     45 H16        -0.9269    2.6655   -1.1393 H         1 <0>         0.0662
     46 H17        -0.1536    1.3969   -2.1206 H         1 <0>         0.0716
     47 H18        -2.7091    1.3498   -2.1148 H         1 <0>         0.0752
     48 H19        -1.9284   -0.1750   -1.6254 H         1 <0>         0.0749
@<TRIPOS>BOND
     1    1    6 ar
     2    1    2 ar
     3    1   31 1
     4    2    3 ar
     5    2   32 1
     6    3    4 ar
     7    3   13 1
     8    4    5 ar
     9    4   10 1
    10    5    6 ar
    11    5   33 1
    12    6    7 1
    13    7    8 2
    14    7    9 am
    15    9   34 1
    16    9   35 1
    17   10   11 2
    18   10   12 1
    19   13   14 1
    20   13   36 1
    21   13   37 1
    22   14   15 1
    23   15   16 2
    24   15   17 1
    25   17   22 ar
    26   17   18 ar
    27   18   19 ar
    28   18   38 1
    29   19   20 ar
    30   19   39 1
    31   20   25 1
    32   20   21 ar
    33   21   22 ar
    34   21   23 1
    35   22   40 1
    36   23   30 1
    37   23   24 2
    38   24   25 1
    39   24   27 1
    40   25   26 1
    41   27   28 1
    42   27   41 1
    43   27   42 1
    44   28   29 1
    45   28   43 1
    46   28   44 1
    47   29   30 1
    48   29   45 1
    49   29   46 1
    50   30   47 1
    51   30   48 1
@<TRIPOS>MOLECULE
ZINC39406197
   51    54     0     0     0
SMALL
USER_CHARGES

@<TRIPOS>ATOM
      1 C1         -0.0187    1.5258    0.0104 C.3       1 <0>        -0.1522
      2 C2          0.0021   -0.0041    0.0020 C.3       1 <0>        -0.1181
      3 C3          0.7182   -0.4975   -1.2568 C.3       1 <0>        -0.1335
      4 C4          0.7390   -2.0273   -1.2652 C.3       1 <0>         0.2082
      5 H1         -0.2789   -2.4050   -1.1679 H         1 <0>         0.0935
      6 C5          1.3429   -2.5219   -2.5810 C.3       1 <0>        -0.1644
      7 N1          1.5485   -2.5109   -0.1440 N.pl3     1 <0>        -0.5172
      8 C6          1.1166   -3.3733    0.9594 C.3       1 <0>         0.2113
      9 H2          0.7384   -2.7948    1.8023 H         1 <0>         0.0928
     10 C7          2.4234   -4.0921    1.2934 C.2       1 <0>         0.1649
     11 N2          2.1490   -5.3114    1.6001 N.2       1 <0>        -0.4256
     12 C8          0.7095   -5.5697    1.4332 C.3       1 <0>         0.2889
     13 H3          0.2077   -5.5521    2.4007 H         1 <0>         0.1060
     14 N3          0.1909   -4.4473    0.5757 N.3       1 <0>        -0.6575
     15 C9          0.4922   -6.8988    0.7569 C.2       1 <0>         0.0116
     16 C10         1.2868   -7.9803    0.8764 C.2       1 <0>        -0.1709
     17 C11         0.7208   -8.9981    0.0829 C.2       1 <0>        -0.1830
     18 C12        -0.3997   -8.4761   -0.4829 C.2       1 <0>         0.0230
     19 O1         -0.5289   -7.2037   -0.0605 O.3       1 <0>        -0.1545
     20 C13        -1.3198   -9.1839   -1.3976 C.ar      1 <0>        -0.0300
     21 C14        -1.0752  -10.5130   -1.7480 C.ar      1 <0>        -0.0404
     22 C15        -1.9382  -11.1679   -2.6018 C.ar      1 <0>        -0.1313
     23 C16        -3.0443  -10.5104   -3.1108 C.ar      1 <0>        -0.0145
     24 C17        -3.2922   -9.1933   -2.7681 C.ar      1 <0>        -0.6712
     25 C18        -2.4402   -8.5283   -1.9104 C.ar      1 <0>        -0.0034
     26 S1         -4.7030   -8.3652   -3.4229 S.o2      1 <0>         2.7012
     27 O2         -4.4128   -6.9747   -3.3823 O.2       1 <0>        -0.9590
     28 O3         -5.0457   -9.0371   -4.6272 O.2       1 <0>        -0.9593
     29 N4         -5.9534   -8.6188   -2.3671 N.pl3     1 <0>        -1.2492
     30 C19         3.4234   -3.0706    0.9761 C.2       1 <0>         0.0669
     31 N5          2.9101   -2.2522    0.1019 N.2       1 <0>        -0.1551
     32 H4          1.0039    1.9031    0.0027 H         1 <0>         0.0544
     33 H5         -0.5459    1.8868   -0.8726 H         1 <0>         0.0540
     34 H6         -0.5289    1.8773    0.9072 H         1 <0>         0.0522
     35 H7          0.5293   -0.3651    0.8851 H         1 <0>         0.0586
     36 H8         -1.0205   -0.3814    0.0098 H         1 <0>         0.0562
     37 H9          0.1910   -0.1364   -2.1398 H         1 <0>         0.0747
     38 H10         1.7408   -0.1202   -1.2645 H         1 <0>         0.0747
     39 H11         1.3577   -3.6118   -2.5870 H         1 <0>         0.0590
     40 H12         0.7406   -2.1622   -3.4152 H         1 <0>         0.0691
     41 H13         2.3608   -2.1442   -2.6783 H         1 <0>         0.0620
     42 H14        -0.7601   -4.2065    0.8116 H         1 <0>         0.3628
     43 H15         2.1875   -8.0531    1.4679 H         1 <0>         0.1587
     44 H16         1.1035   -9.9992   -0.0504 H         1 <0>         0.1546
     45 H17        -0.2121  -11.0272   -1.3516 H         1 <0>         0.1401
     46 H18        -1.7499  -12.1960   -2.8739 H         1 <0>         0.1441
     47 H19        -3.7169  -11.0278   -3.7790 H         1 <0>         0.1485
     48 H20        -2.6375   -7.5016   -1.6398 H         1 <0>         0.1481
     49 H21        -5.8118   -9.1461   -1.5654 H         1 <0>         0.4171
     50 H22        -6.8273   -8.2399   -2.5505 H         1 <0>         0.4224
     51 H23         4.4179   -3.0090    1.3927 H         1 <0>         0.2109
@<TRIPOS>BOND
     1    1    2 1
     2    1   32 1
     3    1   33 1
     4    1   34 1
     5    2    3 1
     6    2   35 1
     7    2   36 1
     8    3    4 1
     9    3   37 1
    10    3   38 1
    11    4    5 1
    12    4    6 1
    13    4    7 1
    14    6   39 1
    15    6   40 1
    16    6   41 1
    17    7   31 1
    18    7    8 1
    19    8    9 1
    20    8   14 1
    21    8   10 1
    22   10   11 2
    23   10   30 1
    24   11   12 1
    25   12   13 1
    26   12   14 1
    27   12   15 1
    28   14   42 1
    29   15   19 1
    30   15   16 2
    31   16   17 1
    32   16   43 1
    33   17   18 2
    34   17   44 1
    35   18   19 1
    36   18   20 1
    37   20   25 ar
    38   20   21 ar
    39   21   22 ar
    40   21   45 1
    41   22   23 ar
    42   22   46 1
    43   23   24 ar
    44   23   47 1
    45   24   25 ar
    46   24   26 1
    47   25   48 1
    48   26   27 2
    49   26   28 2
    50   26   29 1
    51   29   49 1
    52   29   50 1
    53   30   31 2
    54   30   51 1
@<TRIPOS>MOLECULE
ZINC56174435
   48    50     0     0     0
SMALL
USER_CHARGES

@<TRIPOS>ATOM
      1 C1         -0.0265    1.5200   -0.0044 C.3       1 <0>        -0.1644
      2 C2         -0.0018   -0.0098   -0.0086 C.3       1 <0>         0.1681
      3 C3          0.7362   -0.5114    1.2343 C.3       1 <0>        -0.1637
      4 C4         -1.4358   -0.5431   -0.0001 C.3       1 <0>        -0.1581
      5 N1          0.6883   -0.4837   -1.2108 N.am      1 <0>        -0.7139
      6 C5          1.9717   -0.1367   -1.4321 C.2       1 <0>         0.5738
      7 O1          2.5568    0.5697   -0.6338 O.2       1 <0>        -0.5486
      8 C6          2.6665   -0.6139   -2.6425 C.ar      1 <0>        -0.1721
      9 C7          2.0320   -1.5042   -3.5121 C.ar      1 <0>        -0.0658
     10 C8          2.6865   -1.9463   -4.6412 C.ar      1 <0>        -0.1386
     11 C9          3.9728   -1.5126   -4.9196 C.ar      1 <0>        -0.0668
     12 C10         4.6127   -0.6332   -4.0701 C.ar      1 <0>        -0.1304
     13 C11         3.9665   -0.1719   -2.9305 C.ar      1 <0>         0.2089
     14 N2          4.6076    0.7195   -2.0755 N.am      1 <0>        -0.6576
     15 C12         5.4405    1.6532   -2.5765 C.2       1 <0>         0.5846
     16 O2          5.5584    1.7799   -3.7807 O.2       1 <0>        -0.4957
     17 C13         6.2064    2.5185   -1.6679 C.2       1 <0>         0.0210
     18 C14         7.0699    3.4954   -2.0515 C.2       1 <0>        -0.0787
     19 C15         7.5958    4.0903   -0.8793 C.ar      1 <0>        -0.1266
     20 C16         8.5117    5.1264   -0.6539 C.ar      1 <0>         0.0231
     21 C17         8.8292    5.4855    0.6235 C.ar      1 <0>        -0.0730
     22 C18         8.2529    4.8327    1.7061 C.ar      1 <0>        -0.0410
     23 C19         7.3503    3.8116    1.5106 C.ar      1 <0>        -0.1181
     24 C20         7.0098    3.4272    0.2165 C.ar      1 <0>         0.1525
     25 N3          6.1588    2.4724   -0.2880 N.pl3     1 <0>        -0.5646
     26 H1          5.6160    1.8647    0.2383 H         1 <0>         0.4275
     27 N4          9.7972    6.5805    0.8581 N.pl3     1 <0>         0.0380
     28 O3         10.3023    7.1521   -0.0798 O.2       1 <0>        -0.1625
     29 O4         10.0826    6.9033    1.9877 O.3       1 <0>        -0.1590
     30 H2          0.9951    1.8999   -0.0104 H         1 <0>         0.0771
     31 H3         -0.5523    1.8773   -0.8898 H         1 <0>         0.0549
     32 H4         -0.5400    1.8726    0.8901 H         1 <0>         0.0655
     33 H5          0.2228   -0.1588    2.1288 H         1 <0>         0.0656
     34 H6          0.7538   -1.6012    1.2312 H         1 <0>         0.0552
     35 H7          1.7579   -0.1315    1.2282 H         1 <0>         0.0768
     36 H8         -1.9616   -0.1858   -0.8855 H         1 <0>         0.0636
     37 H9         -1.4182   -1.6329   -0.0031 H         1 <0>         0.0636
     38 H10        -1.9493   -0.1905    0.8944 H         1 <0>         0.0769
     39 H11         0.2216   -1.0473   -1.8476 H         1 <0>         0.4011
     40 H12         1.0298   -1.8459   -3.2994 H         1 <0>         0.1304
     41 H13         2.1945   -2.6346   -5.3125 H         1 <0>         0.1340
     42 H14         4.4778   -1.8653   -5.8067 H         1 <0>         0.1355
     43 H15         5.6153   -0.2999   -4.2940 H         1 <0>         0.1426
     44 H16         4.4551    0.6688   -1.1189 H         1 <0>         0.4208
     45 H17         7.3120    3.7684   -3.0679 H         1 <0>         0.1701
     46 H18         8.9653    5.6392   -1.4892 H         1 <0>         0.1598
     47 H19         8.5157    5.1289    2.7108 H         1 <0>         0.1593
     48 H20         6.9074    3.3105    2.3586 H         1 <0>         0.1488
@<TRIPOS>BOND
     1    1    2 1
     2    1   30 1
     3    1   31 1
     4    1   32 1
     5    2    3 1
     6    2    4 1
     7    2    5 1
     8    3   33 1
     9    3   34 1
    10    3   35 1
    11    4   36 1
    12    4   37 1
    13    4   38 1
    14    5    6 am
    15    5   39 1
    16    6    7 2
    17    6    8 1
    18    8   13 ar
    19    8    9 ar
    20    9   10 ar
    21    9   40 1
    22   10   11 ar
    23   10   41 1
    24   11   12 ar
    25   11   42 1
    26   12   13 ar
    27   12   43 1
    28   13   14 1
    29   14   15 am
    30   14   44 1
    31   15   16 2
    32   15   17 1
    33   17   25 1
    34   17   18 2
    35   18   19 1
    36   18   45 1
    37   19   24 ar
    38   19   20 ar
    39   20   21 ar
    40   20   46 1
    41   21   22 ar
    42   21   27 1
    43   22   23 ar
    44   22   47 1
    45   23   24 ar
    46   23   48 1
    47   24   25 1
    48   25   26 1
    49   27   28 2
    50   27   29 1
@<TRIPOS>MOLECULE
ZINC67536704
   47    49     0     0     0
SMALL
USER_CHARGES

@<TRIPOS>ATOM
      1 C1         -0.0187    1.5258    0.0104 C.3       1 <0>        -0.1491
      2 C2          0.0021   -0.0041    0.0020 C.3       1 <0>        -0.0933
      3 H1          0.5124   -0.3545   -0.8951 H         1 <0>         0.0739
      4 C3         -1.4351   -0.5326    0.0092 C.3       1 <0>        -0.1104
      5 C4         -1.4078   -2.0412   -0.2716 C.3       1 <0>        -0.0461
      6 C5         -0.3767   -2.6711    0.6177 C.2       1 <0>        -0.1805
      7 C6          0.6041   -2.0269    1.3132 C.2       1 <0>        -0.1460
      8 C7          1.4488   -2.8185    2.0769 C.2       1 <0>        -0.0423
      9 C8          1.2143   -4.1811    2.0574 C.2       1 <0>        -0.2660
     10 S1         -0.1885   -4.2941    0.9625 S.3       1 <0>         0.2005
     11 C9          1.9318   -5.2527    2.7543 C.2       1 <0>         0.6151
     12 O1          2.8792   -4.9854    3.4699 O.2       1 <0>        -0.5137
     13 N1          1.5423   -6.5340    2.6025 N.am      1 <0>        -0.5288
     14 N2          2.2281   -7.5582    3.2686 N.am      1 <0>        -0.5244
     15 C10         1.8386   -8.8395    3.1168 C.2       1 <0>         0.7171
     16 O2          2.4337   -9.7283    3.6948 O.2       1 <0>        -0.5603
     17 N3          0.7895   -9.1355    2.3242 N.am      1 <0>        -0.7440
     18 C11         0.3661  -10.5283    2.1593 C.3       1 <0>         0.1788
     19 C12        -0.8191  -10.5864    1.2303 C.ar      1 <0>        -0.1119
     20 C13        -2.1013  -10.4936    1.7391 C.ar      1 <0>        -0.0479
     21 C14        -3.1884  -10.5469    0.8871 C.ar      1 <0>        -0.1157
     22 C15        -2.9935  -10.6925   -0.4739 C.ar      1 <0>        -0.0452
     23 C16        -1.7117  -10.7843   -0.9825 C.ar      1 <0>        -0.0494
     24 C17        -0.6242  -10.7267   -0.1308 C.ar      1 <0>        -0.0362
     25 N4         -1.5031  -10.9407   -2.4396 N.pl3     1 <0>         0.0308
     26 O3         -2.4539  -10.9881   -3.1847 O.2       1 <0>        -0.1527
     27 O4         -0.3818  -11.0210   -2.8845 O.3       1 <0>        -0.1535
     28 C18         0.7450   -0.5090    1.2393 C.3       1 <0>        -0.0531
     29 H2          1.0039    1.9031    0.0027 H         1 <0>         0.0576
     30 H3         -0.5459    1.8868   -0.8726 H         1 <0>         0.0583
     31 H4         -0.5289    1.8773    0.9072 H         1 <0>         0.0568
     32 H5         -1.8865   -0.3505    0.9845 H         1 <0>         0.0698
     33 H6         -2.0141   -0.0274   -0.7639 H         1 <0>         0.0769
     34 H7         -2.3867   -2.4712   -0.0593 H         1 <0>         0.0862
     35 H8         -1.1467   -2.2149   -1.3155 H         1 <0>         0.0896
     36 H9          2.2519   -2.3911    2.6590 H         1 <0>         0.1502
     37 H10         0.7873   -6.7471    2.0321 H         1 <0>         0.4168
     38 H11         2.9832   -7.3451    3.8389 H         1 <0>         0.4477
     39 H12         0.3147   -8.4264    1.8631 H         1 <0>         0.3922
     40 H13         1.1863  -11.1099    1.7385 H         1 <0>         0.0897
     41 H14         0.0882  -10.9409    3.1291 H         1 <0>         0.0918
     42 H15        -2.2535  -10.3799    2.8022 H         1 <0>         0.1477
     43 H16        -4.1900  -10.4751    1.2846 H         1 <0>         0.1527
     44 H17        -3.8429  -10.7348   -1.1395 H         1 <0>         0.1569
     45 H18         0.3776  -10.7947   -0.5286 H         1 <0>         0.1569
     46 H19         1.7998   -0.2444    1.1653 H         1 <0>         0.0777
     47 H20         0.3150   -0.0574    2.1333 H         1 <0>         0.0786
@<TRIPOS>BOND
     1    1    2 1
     2    1   29 1
     3    1   30 1
     4    1   31 1
     5    2    3 1
     6    2   28 1
     7    2    4 1
     8    4    5 1
     9    4   32 1
    10    4   33 1
    11    5    6 1
    12    5   34 1
    13    5   35 1
    14    6   10 1
    15    6    7 2
    16    7    8 1
    17    7   28 1
    18    8    9 2
    19    8   36 1
    20    9   10 1
    21    9   11 1
    22   11   12 2
    23   11   13 am
    24   13   14 1
    25   13   37 1
    26   14   15 am
    27   14   38 1
    28   15   16 2
    29   15   17 am
    30   17   18 1
    31   17   39 1
    32   18   19 1
    33   18   40 1
    34   18   41 1
    35   19   24 ar
    36   19   20 ar
    37   20   21 ar
    38   20   42 1
    39   21   22 ar
    40   21   43 1
    41   22   23 ar
    42   22   44 1
    43   23   24 ar
    44   23   25 1
    45   24   45 1
    46   25   26 2
    47   25   27 1
    48   28   46 1
    49   28   47 1
@<TRIPOS>MOLECULE
ZINC09590742
   55    60     0     0     0
SMALL
USER_CHARGES
amino-oxo-phenyl-(3-pyridyl)BLAHcarbonitrile
@<TRIPOS>ATOM
      1 C1         -1.2190    1.7506    0.0173 C.ar      1 <0>        -0.1181
      2 C2         -0.0126    1.0758    0.0080 C.ar      1 <0>        -0.1159
      3 C3          1.1750    1.7832    0.0004 C.ar      1 <0>        -0.1095
      4 C4          1.1563    3.1654    0.0081 C.ar      1 <0>        -0.0810
      5 C5         -0.0501    3.8402    0.0228 C.ar      1 <0>        -0.1146
      6 C6         -1.2377    3.1328    0.0294 C.ar      1 <0>        -0.1163
      7 C7          2.4499    3.9359    0.0009 C.3       1 <0>        -0.0429
      8 H1          3.2917    3.2454    0.0084 H         1 <0>         0.0943
      9 C8          2.5171    4.8414    1.2360 C.3       1 <0>        -0.0938
     10 C9          3.8422    5.5702    1.2488 C.2       1 <0>         0.1998
     11 C10         4.4264    5.8652    0.0608 C.2       1 <0>        -0.2336
     12 C11         5.8346    6.4216    0.0709 C.3       1 <0>         0.0866
     13 H2          5.8080    7.4456   -0.2877 H         1 <0>         0.0907
     14 C12         6.5502    6.3987    1.4062 C.2       1 <0>        -0.1542
     15 C13         5.7973    6.1077    2.5379 C.2       1 <0>         0.3972
     16 N1          4.4414    5.8525    2.4496 N.pl3     1 <0>        -0.4702
     17 C14         3.6945    5.8585    3.6260 C.ar      1 <0>         0.1945
     18 C15         2.3124    5.9409    3.6415 C.ar      1 <0>        -0.1583
     19 C16         1.6162    5.8173    4.8293 C.ar      1 <0>        -0.0524
     20 C17         2.2878    5.6307    6.0265 C.ar      1 <0>        -0.1364
     21 C18         3.6659    5.6265    6.0479 C.ar      1 <0>        -0.0498
     22 C19         4.3747    5.7782    4.8568 C.ar      1 <0>        -0.1625
     23 C20         5.8438    5.8494    4.8509 C.2       1 <0>         0.4949
     24 N2          6.4574    6.0561    3.7049 N.2       1 <0>        -0.5762
     25 N3          6.5627    5.7264    6.0129 N.pl3     1 <0>        -0.8035
     26 C21         7.9538    6.6643    1.4936 C.1       1 <0>         0.2979
     27 N4          9.0680    6.8751    1.5630 N.1       1 <0>        -0.4407
     28 C22         6.6728    5.6105   -0.8833 C.ar      1 <0>        -0.1275
     29 C23         7.2841    6.2167   -1.9705 C.ar      1 <0>        -0.0517
     30 C24         8.0496    5.4321   -2.8191 C.ar      1 <0>        -0.1700
     31 C25         8.1692    4.0794   -2.5608 C.ar      1 <0>         0.0940
     32 N5          7.5695    3.5359   -1.5199 N.ar      1 <0>        -0.4842
     33 C26         6.8374    4.2523   -0.6892 C.ar      1 <0>         0.1104
     34 C27         3.7660    5.6690   -1.1576 C.2       1 <0>         0.4075
     35 O1          4.1740    6.2045   -2.1711 O.2       1 <0>        -0.4480
     36 C28         2.5174    4.8281   -1.2431 C.3       1 <0>        -0.1489
     37 H3         -2.1469    1.1980    0.0188 H         1 <0>         0.1223
     38 H4          0.0021   -0.0041    0.0020 H         1 <0>         0.1235
     39 H5          2.1175    1.2560   -0.0111 H         1 <0>         0.1234
     40 H6         -0.0647    4.9201    0.0295 H         1 <0>         0.1223
     41 H7         -2.1802    3.6600    0.0413 H         1 <0>         0.1235
     42 H8          1.7028    5.5621    1.1746 H         1 <0>         0.1059
     43 H9          2.4249    4.2290    2.1300 H         1 <0>         0.1028
     44 H10         1.7571    6.1545    2.7416 H         1 <0>         0.1488
     45 H11         0.5367    5.8417    4.8191 H         1 <0>         0.1423
     46 H12         1.7351    5.4976    6.9440 H         1 <0>         0.1401
     47 H13         4.1897    5.5063    6.9849 H         1 <0>         0.1377
     48 H14         7.5303    5.7918    5.9938 H         1 <0>         0.4201
     49 H15         6.1034    5.5742    6.8536 H         1 <0>         0.4159
     50 H16         7.1698    7.2756   -2.1495 H         1 <0>         0.1327
     51 H17         8.5430    5.8714   -3.6735 H         1 <0>         0.1342
     52 H18         8.7610    3.4606   -3.2191 H         1 <0>         0.1538
     53 H19         6.3613    3.7720    0.1528 H         1 <0>         0.1433
     54 H20         2.5430    4.2558   -2.0627 H         1 <0>         0.0939
     55 H21         1.6426    5.4753   -1.2799 H         1 <0>         0.1056
@<TRIPOS>BOND
     1    1    6 ar
     2    1    2 ar
     3    1   37 1
     4    2    3 ar
     5    2   38 1
     6    3    4 ar
     7    3   39 1
     8    4    5 ar
     9    4    7 1
    10    5    6 ar
    11    5   40 1
    12    6   41 1
    13    7    8 1
    14    7   36 1
    15    7    9 1
    16    9   10 1
    17    9   42 1
    18    9   43 1
    19   10   16 1
    20   10   11 2
    21   11   12 1
    22   11   34 1
    23   12   13 1
    24   12   14 1
    25   12   28 1
    26   14   15 2
    27   14   26 1
    28   15   24 1
    29   15   16 1
    30   16   17 1
    31   17   22 ar
    32   17   18 ar
    33   18   19 ar
    34   18   44 1
    35   19   20 ar
    36   19   45 1
    37   20   21 ar
    38   20   46 1
    39   21   22 ar
    40   21   47 1
    41   22   23 1
    42   23   24 2
    43   23   25 1
    44   25   48 1
    45   25   49 1
    46   26   27 3
    47   28   33 ar
    48   28   29 ar
    49   29   30 ar
    50   29   50 1
    51   30   31 ar
    52   30   51 1
    53   31   32 ar
    54   31   52 1
    55   32   33 ar
    56   33   53 1
    57   34   35 2
    58   34   36 1
    59   36   54 1
    60   36   55 1
@<TRIPOS>MOLECULE
ZINC22779556
   54    57     0     0     0
SMALL
USER_CHARGES
(4S)-2-amino-4-(2,4-dichlorophenyl)-5-[4-(4-fluorophenyl)piperazine-1-carbonyl]-6-methyl-4H-pyran-3-carbonitrile
@<TRIPOS>ATOM
      1 C1         -3.6776    3.6321    0.6669 C.3       1 <0>        -0.1143
      2 C2         -3.0289    2.3259    0.2876 C.2       1 <0>         0.1215
      3 C3         -2.1788    1.7501    1.1455 C.2       1 <0>        -0.2244
      4 C4         -1.5046    0.4462    0.8172 C.3       1 <0>         0.0913
      5 H1         -0.4420    0.5104    1.0941 H         1 <0>         0.1029
      6 C5         -1.6143    0.1684   -0.6575 C.2       1 <0>        -0.2878
      7 C6         -2.5063    0.8404   -1.4254 C.2       1 <0>         0.4456
      8 O1         -3.3212    1.7745   -0.9012 O.3       1 <0>        -0.2375
      9 N1         -2.5806    0.5618   -2.7675 N.pl3     1 <0>        -0.8511
     10 C7         -0.7659   -0.8173   -1.2568 C.1       1 <0>         0.2721
     11 N2         -0.0928   -1.5992   -1.7322 N.1       1 <0>        -0.4397
     12 C8         -2.1672   -0.6673    1.5867 C.ar      1 <0>        -0.0573
     13 C9         -3.5296   -0.8714    1.4717 C.ar      1 <0>        -0.0723
     14 C10        -4.1369   -1.8959    2.1726 C.ar      1 <0>        -0.1020
     15 C11        -3.3815   -2.7185    2.9897 C.ar      1 <0>        -0.0232
     16 C12        -2.0183   -2.5147    3.1052 C.ar      1 <0>        -0.1004
     17 C13        -1.4109   -1.4886    2.4036 C.ar      1 <0>        -0.0154
     18 Cl1         0.3000   -1.2324    2.5475 Cl        1 <0>        -0.0538
     19 Cl2        -4.1444   -4.0061    3.8693 Cl        1 <0>        -0.0573
     20 C14        -1.9007    2.3995    2.4248 C.2       1 <0>         0.5787
     21 O2         -2.4941    2.0476    3.4277 O.2       1 <0>        -0.5136
     22 N3         -0.9872    3.3881    2.4942 N.am      1 <0>        -0.6105
     23 C15        -0.1754    3.7493    1.3222 C.3       1 <0>         0.1071
     24 C16        -0.2813    5.2682    1.1121 C.3       1 <0>         0.0415
     25 N4          0.0856    5.9562    2.3571 N.pl3     1 <0>        -0.4840
     26 C17        -0.8499    5.6301    3.4417 C.3       1 <0>         0.0344
     27 C18        -0.7716    4.1302    3.7456 C.3       1 <0>         0.1130
     28 C19         0.1637    7.3385    2.1614 C.ar      1 <0>         0.1006
     29 C20        -0.5960    8.1959    2.9464 C.ar      1 <0>        -0.1420
     30 C21        -0.5137    9.5613    2.7546 C.ar      1 <0>        -0.1250
     31 C22         0.3176   10.0747    1.7734 C.ar      1 <0>         0.0732
     32 C23         1.0720    9.2214    0.9861 C.ar      1 <0>        -0.1268
     33 C24         0.9968    7.8556    1.1779 C.ar      1 <0>        -0.1106
     34 F1          0.3930   11.4103    1.5844 F         1 <0>        -0.1407
     35 H2         -3.3296    3.9383    1.6645 H         1 <0>         0.0926
     36 H3         -4.7705    3.5080    0.6819 H         1 <0>         0.0964
     37 H4         -3.4063    4.4035   -0.0689 H         1 <0>         0.0912
     38 H5         -3.3002    1.1000   -3.4019 H         1 <0>         0.4356
     39 H6         -1.9205   -0.1997   -3.2085 H         1 <0>         0.4522
     40 H7         -4.1196   -0.2297    0.8341 H         1 <0>         0.1328
     41 H8         -5.2014   -2.0549    2.0824 H         1 <0>         0.1402
     42 H9         -1.4283   -3.1566    3.7425 H         1 <0>         0.1444
     43 H10         0.8722    3.4650    1.5001 H         1 <0>         0.0861
     44 H11        -0.5539    3.2184    0.4362 H         1 <0>         0.0942
     45 H12         0.4015    5.5753    0.3062 H         1 <0>         0.0984
     46 H13        -1.3139    5.5292    0.8372 H         1 <0>         0.0530
     47 H14        -0.5814    6.2023    4.3419 H         1 <0>         0.1008
     48 H15        -1.8734    5.8901    3.1337 H         1 <0>         0.0546
     49 H16        -1.5481    3.8539    4.4741 H         1 <0>         0.1051
     50 H17         0.2192    3.8812    4.1535 H         1 <0>         0.0823
     51 H18        -1.2476    7.7957    3.7090 H         1 <0>         0.1374
     52 H19        -1.1009   10.2287    3.3678 H         1 <0>         0.1365
     53 H20         1.7200    9.6240    0.2216 H         1 <0>         0.1381
     54 H21         1.5856    7.1904    0.5638 H         1 <0>         0.1361
@<TRIPOS>BOND
     1    1    2 1
     2    1   35 1
     3    1   36 1
     4    1   37 1
     5    2    8 1
     6    2    3 2
     7    3    4 1
     8    3   20 1
     9    4    5 1
    10    4    6 1
    11    4   12 1
    12    6    7 2
    13    6   10 1
    14    7    8 1
    15    7    9 1
    16    9   38 1
    17    9   39 1
    18   10   11 3
    19   12   17 ar
    20   12   13 ar
    21   13   14 ar
    22   13   40 1
    23   14   15 ar
    24   14   41 1
    25   15   16 ar
    26   15   19 1
    27   16   17 ar
    28   16   42 1
    29   17   18 1
    30   20   21 2
    31   20   22 am
    32   22   27 1
    33   22   23 1
    34   23   24 1
    35   23   43 1
    36   23   44 1
    37   24   25 1
    38   24   45 1
    39   24   46 1
    40   25   26 1
    41   25   28 1
    42   26   27 1
    43   26   47 1
    44   26   48 1
    45   27   49 1
    46   27   50 1
    47   28   33 ar
    48   28   29 ar
    49   29   30 ar
    50   29   51 1
    51   30   31 ar
    52   30   52 1
    53   31   32 ar
    54   31   34 1
    55   32   33 ar
    56   32   53 1
    57   33   54 1
@<TRIPOS>MOLECULE
ZINC36092921
   66    71     0     0     0
SMALL
USER_CHARGES

@<TRIPOS>ATOM
      1 C1         -0.2372    1.1878   -0.1515 C.3       1 <0>        -0.1118
      2 C2          0.0677   -0.2786    0.0152 C.ar      1 <0>        -0.0470
      3 C3          0.2353   -1.0783   -1.0980 C.ar      1 <0>        -0.1137
      4 C4          0.5148   -2.4226   -0.9544 C.ar      1 <0>        -0.0900
      5 C5          0.6306   -2.9832    0.3196 C.ar      1 <0>        -0.1277
      6 C6          0.4633   -2.1826    1.4474 C.ar      1 <0>        -0.0824
      7 C7          0.1859   -0.8247    1.2954 C.ar      1 <0>         0.0900
      8 N1          0.0247   -0.0293    2.3987 N.2       1 <0>        -0.4733
      9 C8         -0.7692   -0.4111    3.3736 C.2       1 <0>         0.4102
     10 N2         -1.6089   -1.5436    3.4194 N.pl3     1 <0>        -0.7527
     11 C9         -1.6979   -2.0401    4.7619 C.3       1 <0>         0.1221
     12 H1         -0.6776   -2.2402    5.0889 H         1 <0>         0.0923
     13 C10        -2.5340   -3.2384    5.1872 C.3       1 <0>        -0.5604
     14 S1         -2.2987   -3.0722    7.0214 S.o2      1 <0>         2.3705
     15 O1         -3.5436   -3.2917    7.6704 O.2       1 <0>        -0.9154
     16 O2         -1.1616   -3.8288    7.4135 O.2       1 <0>        -0.9118
     17 C11        -1.8842   -1.2702    7.1032 C.3       1 <0>        -0.5480
     18 C12        -2.2007   -0.8453    5.6581 C.3       1 <0>        -0.1163
     19 H2         -3.2490   -0.5941    5.4967 H         1 <0>         0.1483
     20 S2         -1.0338    0.3831    4.9645 S.3       1 <0>        -0.0264
     21 C13         0.9295   -4.4234    0.4711 C.2       1 <0>         0.5599
     22 O3          1.0300   -4.9099    1.5805 O.2       1 <0>        -0.5346
     23 N3          1.0906   -5.1967   -0.6209 N.am      1 <0>        -0.7180
     24 C14         1.3868   -6.6236   -0.4708 C.3       1 <0>         0.1524
     25 H3          2.0195   -6.7733    0.4041 H         1 <0>         0.0898
     26 C15         0.0803   -7.3999   -0.2942 C.3       1 <0>        -0.1671
     27 C16         2.1147   -7.1274   -1.7188 C.3       1 <0>        -0.0585
     28 C17         3.4213   -6.3511   -1.8954 C.3       1 <0>        -0.1013
     29 C18         4.1491   -6.8549   -3.1433 C.3       1 <0>        -0.0859
     30 C19         4.4585   -8.3451   -2.9866 C.3       1 <0>        -0.1094
     31 C20         3.1519   -9.1214   -2.8100 C.3       1 <0>        -0.0851
     32 C21         2.4240   -8.6176   -1.5620 C.3       1 <0>        -0.1019
     33 C22         2.2639   -8.9112   -4.0380 C.3       1 <0>        -0.1085
     34 C23         1.9545   -7.4211   -4.1947 C.3       1 <0>        -0.0853
     35 C24         3.2611   -6.6448   -4.3714 C.3       1 <0>        -0.1088
     36 C25         1.2267   -6.9173   -2.9468 C.3       1 <0>        -0.1044
     37 H4          0.6955    1.7501   -0.1955 H         1 <0>         0.0786
     38 H5         -0.7971    1.3399   -1.0743 H         1 <0>         0.0675
     39 H6         -0.8306    1.5340    0.6948 H         1 <0>         0.0720
     40 H7          0.1469   -0.6501   -2.0856 H         1 <0>         0.1352
     41 H8          0.6439   -3.0424   -1.8294 H         1 <0>         0.1257
     42 H9          0.5514   -2.6111    2.4348 H         1 <0>         0.1351
     43 H10        -3.5797   -3.1218    4.9026 H         1 <0>         0.1510
     44 H11        -2.1192   -4.1734    4.8106 H         1 <0>         0.1549
     45 H12        -2.5326   -0.7496    7.8080 H         1 <0>         0.1579
     46 H13        -0.8341   -1.1196    7.3534 H         1 <0>         0.1580
     47 H14         1.0105   -4.8085   -1.5062 H         1 <0>         0.3980
     48 H15        -0.5524   -7.2502   -1.1691 H         1 <0>         0.0603
     49 H16         0.3007   -8.4615   -0.1826 H         1 <0>         0.0702
     50 H17        -0.4383   -7.0410    0.5948 H         1 <0>         0.0592
     51 H18         3.2009   -5.2895   -2.0070 H         1 <0>         0.0611
     52 H19         4.0539   -6.5008   -1.0205 H         1 <0>         0.0633
     53 H20         5.0799   -6.3019   -3.2691 H         1 <0>         0.0697
     54 H21         4.9770   -8.7040   -3.8756 H         1 <0>         0.0621
     55 H22         5.0911   -8.4948   -2.1117 H         1 <0>         0.0619
     56 H23         3.3723  -10.1830   -2.6983 H         1 <0>         0.0714
     57 H24         3.0567   -8.7673   -0.6871 H         1 <0>         0.0653
     58 H25         1.4932   -9.1706   -1.4362 H         1 <0>         0.0691
     59 H26         2.7824   -9.2701   -4.9271 H         1 <0>         0.0623
     60 H27         1.3330   -9.4643   -3.9122 H         1 <0>         0.0619
     61 H28         1.3219   -7.2714   -5.0696 H         1 <0>         0.0701
     62 H29         3.0407   -5.5831   -4.4830 H         1 <0>         0.0603
     63 H30         3.7796   -7.0037   -5.2604 H         1 <0>         0.0625
     64 H31         0.2958   -7.4703   -2.8210 H         1 <0>         0.0697
     65 H32         1.0063   -5.8556   -3.0585 H         1 <0>         0.0565
     66 H33        -2.0612   -1.9305    2.6535 H         1 <0>         0.4192
@<TRIPOS>BOND
     1    1    2 1
     2    1   37 1
     3    1   38 1
     4    1   39 1
     5    2    7 ar
     6    2    3 ar
     7    3    4 ar
     8    3   40 1
     9    4    5 ar
    10    4   41 1
    11    5    6 ar
    12    5   21 1
    13    6    7 ar
    14    6   42 1
    15    7    8 1
    16    8    9 2
    17    9   20 1
    18    9   10 1
    19   10   11 1
    20   10   66 1
    21   11   12 1
    22   11   18 1
    23   11   13 1
    24   13   14 1
    25   13   43 1
    26   13   44 1
    27   14   15 2
    28   14   16 2
    29   14   17 1
    30   17   18 1
    31   17   45 1
    32   17   46 1
    33   18   19 1
    34   18   20 1
    35   21   22 2
    36   21   23 am
    37   23   24 1
    38   23   47 1
    39   24   25 1
    40   24   26 1
    41   24   27 1
    42   26   48 1
    43   26   49 1
    44   26   50 1
    45   27   32 1
    46   27   36 1
    47   27   28 1
    48   28   29 1
    49   28   51 1
    50   28   52 1
    51   29   35 1
    52   29   30 1
    53   29   53 1
    54   30   31 1
    55   30   54 1
    56   30   55 1
    57   31   32 1
    58   31   33 1
    59   31   56 1
    60   32   57 1
    61   32   58 1
    62   33   34 1
    63   33   59 1
    64   33   60 1
    65   34   35 1
    66   34   36 1
    67   34   61 1
    68   35   62 1
    69   35   63 1
    70   36   64 1
    71   36   65 1
@<TRIPOS>MOLECULE
ZINC09408974
   45    49     0     0     0
SMALL
USER_CHARGES

@<TRIPOS>ATOM
      1 C1          2.2299    1.0945   -1.2523 C.ar      1 <0>        -0.1252
      2 C2          1.3331    1.8471   -0.5140 C.ar      1 <0>        -0.0859
      3 C3          0.4479    1.2293    0.3491 C.ar      1 <0>        -0.1455
      4 C4          0.4539   -0.1500    0.4798 C.ar      1 <0>         0.1386
      5 C5          1.3592   -0.9142   -0.2650 C.ar      1 <0>        -0.0647
      6 C6          2.2477   -0.2799   -1.1327 C.ar      1 <0>        -0.0798
      7 C7          1.3738   -2.3876   -0.1322 C.2       1 <0>         0.1097
      8 C8          1.7100   -3.0989    0.9750 C.2       1 <0>        -0.1801
      9 C9          1.5727   -4.4599    0.6195 C.2       1 <0>        -0.0359
     10 N1          1.1758   -4.4900   -0.6370 N.2       1 <0>        -0.1993
     11 N2          1.0464   -3.2967   -1.0972 N.pl3     1 <0>        -0.3748
     12 H1          0.7608   -3.0748   -1.9973 H         1 <0>         0.4536
     13 C10         1.9285   -5.2730    1.7964 C.2       1 <0>         0.6099
     14 O1          1.9168   -6.4882    1.8288 O.2       1 <0>        -0.4990
     15 N3          2.2683   -4.4818    2.8283 N.am      1 <0>        -0.5989
     16 C11         2.1628   -3.0793    2.4094 C.3       1 <0>         0.2622
     17 H2          1.4299   -2.5591    3.0262 H         1 <0>         0.1139
     18 C12         3.5053   -2.4036    2.5190 C.ar      1 <0>        -0.0906
     19 C13         4.6302   -3.0116    1.9931 C.ar      1 <0>        -0.0609
     20 C14         5.8618   -2.3923    2.0933 C.ar      1 <0>        -0.1063
     21 C15         5.9694   -1.1646    2.7195 C.ar      1 <0>        -0.0817
     22 C16         4.8444   -0.5558    3.2454 C.ar      1 <0>        -0.0908
     23 C17         3.6110   -1.1736    3.1402 C.ar      1 <0>        -0.0718
     24 Br1         4.9911    1.1233    4.1027 Br        1 <0>        -0.0490
     25 C18         2.6775   -4.9447    4.1567 C.3       1 <0>         0.2210
     26 C19         4.1730   -5.1287    4.1859 C.2       1 <0>        -0.0472
     27 C20         5.0743   -4.1913    4.5296 C.2       1 <0>        -0.1722
     28 C21         6.3505   -4.7894    4.4173 C.2       1 <0>        -0.2146
     29 C22         6.1526   -6.0566    4.0117 C.2       1 <0>        -0.0306
     30 O2          4.8315   -6.2582    3.8787 O.3       1 <0>        -0.1650
     31 O3         -0.4154   -0.7582    1.3282 O.3       1 <0>        -0.4898
     32 H3          2.9153    1.5846   -1.9278 H         1 <0>         0.1313
     33 H4          1.3253    2.9225   -0.6126 H         1 <0>         0.1318
     34 H5         -0.2490    1.8224    0.9225 H         1 <0>         0.1356
     35 H6          2.9487   -0.8639   -1.7107 H         1 <0>         0.1279
     36 H7          4.5465   -3.9709    1.5041 H         1 <0>         0.1170
     37 H8          6.7402   -2.8678    1.6827 H         1 <0>         0.1291
     38 H9          6.9319   -0.6811    2.7984 H         1 <0>         0.1316
     39 H10         2.7316   -0.6968    3.5473 H         1 <0>         0.1336
     40 H11         2.3877   -4.2061    4.9040 H         1 <0>         0.1196
     41 H12         2.1902   -5.8946    4.3765 H         1 <0>         0.1089
     42 H13         4.8637   -3.1763    4.8327 H         1 <0>         0.1438
     43 H14         7.3017   -4.3190    4.6183 H         1 <0>         0.1464
     44 H15         6.9249   -6.7888    3.8280 H         1 <0>         0.2008
     45 H16        -1.2864   -0.9277    0.9439 H         1 <0>         0.3933
@<TRIPOS>BOND
     1    1    6 ar
     2    1    2 ar
     3    1   32 1
     4    2    3 ar
     5    2   33 1
     6    3    4 ar
     7    3   34 1
     8    4    5 ar
     9    4   31 1
    10    5    6 ar
    11    5    7 1
    12    6   35 1
    13    7   11 1
    14    7    8 2
    15    8   16 1
    16    8    9 1
    17    9   10 2
    18    9   13 1
    19   10   11 1
    20   11   12 1
    21   13   14 2
    22   13   15 am
    23   15   16 1
    24   15   25 1
    25   16   17 1
    26   16   18 1
    27   18   23 ar
    28   18   19 ar
    29   19   20 ar
    30   19   36 1
    31   20   21 ar
    32   20   37 1
    33   21   22 ar
    34   21   38 1
    35   22   23 ar
    36   22   24 1
    37   23   39 1
    38   25   26 1
    39   25   40 1
    40   25   41 1
    41   26   30 1
    42   26   27 2
    43   27   28 1
    44   27   42 1
    45   28   29 2
    46   28   43 1
    47   29   30 1
    48   29   44 1
    49   31   45 1
@<TRIPOS>MOLECULE
ZINC09282469
   45    48     0     0     0
SMALL
USER_CHARGES

@<TRIPOS>ATOM
      1 C1         -0.0187    1.5258    0.0104 C.3       1 <0>        -0.1537
      2 C2          0.0021   -0.0041    0.0020 C.3       1 <0>         0.0530
      3 O1          0.6709   -0.4649   -1.1737 O.3       1 <0>        -0.3136
      4 C3          0.7767   -1.8099   -1.3361 C.ar      1 <0>         0.1469
      5 C4          0.2414   -2.6669   -0.3842 C.ar      1 <0>        -0.2098
      6 C5          0.3473   -4.0324   -0.5464 C.ar      1 <0>        -0.0424
      7 C6          0.9920   -4.5516   -1.6675 C.ar      1 <0>        -0.0615
      8 C7          1.5280   -3.6889   -2.6216 C.ar      1 <0>        -0.0522
      9 C8          1.4149   -2.3243   -2.4565 C.ar      1 <0>        -0.1518
     10 C9          1.1080   -6.0205   -1.8446 C.2       1 <0>         0.1704
     11 C10         1.0678   -6.7080   -3.0613 C.2       1 <0>        -0.2531
     12 C11         1.2101   -8.0399   -2.7989 C.2       1 <0>         0.2777
     13 N1          1.3339   -8.1841   -1.4632 N.pl3     1 <0>        -0.4448
     14 H1          1.4485   -9.0221   -0.9883 H         1 <0>         0.4488
     15 N2          1.2730   -6.9080   -0.8821 N.2       1 <0>        -0.2514
     16 O2          1.2163   -8.9819   -3.7749 O.3       1 <0>        -0.2295
     17 C12         1.3532   -8.5608   -5.0487 C.2       1 <0>         0.4412
     18 C13         1.2225   -7.2715   -5.4326 C.2       1 <0>        -0.2589
     19 C14         0.9008   -6.1665   -4.4575 C.3       1 <0>         0.1178
     20 H2          1.5829   -5.3303   -4.6117 H         1 <0>         0.0999
     21 C15        -0.5206   -5.7080   -4.6584 C.ar      1 <0>        -0.0548
     22 C16        -1.5624   -6.6061   -4.5206 C.ar      1 <0>        -0.0944
     23 C17        -2.8663   -6.1860   -4.7043 C.ar      1 <0>        -0.0904
     24 C18        -3.1287   -4.8665   -5.0262 C.ar      1 <0>        -0.0901
     25 C19        -2.0859   -3.9682   -5.1641 C.ar      1 <0>        -0.0866
     26 C20        -0.7827   -4.3880   -4.9749 C.ar      1 <0>        -0.1003
     27 Br1        -4.9123   -4.2912   -5.2783 Br        1 <0>        -0.0540
     28 C21         1.3955   -6.9426   -6.8155 C.1       1 <0>         0.2685
     29 N3          1.5328   -6.6816   -7.9126 N.1       1 <0>        -0.4332
     30 N4          1.6425   -9.4958   -6.0112 N.pl3     1 <0>        -0.8295
     31 H3          1.0039    1.9031    0.0027 H         1 <0>         0.0670
     32 H4         -0.5459    1.8868   -0.8726 H         1 <0>         0.0672
     33 H5         -0.5289    1.8773    0.9072 H         1 <0>         0.0794
     34 H6          0.5293   -0.3651    0.8851 H         1 <0>         0.0638
     35 H7         -1.0205   -0.3814    0.0098 H         1 <0>         0.0640
     36 H8         -0.2581   -2.2639    0.4844 H         1 <0>         0.1318
     37 H9         -0.0687   -4.6986    0.1948 H         1 <0>         0.1303
     38 H10         2.0285   -4.0885   -3.4912 H         1 <0>         0.1350
     39 H11         1.8268   -1.6552   -3.1975 H         1 <0>         0.1368
     40 H12        -1.3574   -7.6364   -4.2696 H         1 <0>         0.1214
     41 H13        -3.6801   -6.8878   -4.5969 H         1 <0>         0.1302
     42 H14        -2.2903   -2.9379   -5.4153 H         1 <0>         0.1324
     43 H15         0.0312   -3.6858   -5.0785 H         1 <0>         0.1316
     44 H16         1.7426  -10.4290   -5.7662 H         1 <0>         0.4122
     45 H17         1.7469   -9.2233   -6.9363 H         1 <0>         0.4287
@<TRIPOS>BOND
     1    1    2 1
     2    1   31 1
     3    1   32 1
     4    1   33 1
     5    2    3 1
     6    2   34 1
     7    2   35 1
     8    3    4 1
     9    4    9 ar
    10    4    5 ar
    11    5    6 ar
    12    5   36 1
    13    6    7 ar
    14    6   37 1
    15    7    8 ar
    16    7   10 1
    17    8    9 ar
    18    8   38 1
    19    9   39 1
    20   10   15 2
    21   10   11 1
    22   11   19 1
    23   11   12 2
    24   12   13 1
    25   12   16 1
    26   13   14 1
    27   13   15 1
    28   16   17 1
    29   17   18 2
    30   17   30 1
    31   18   19 1
    32   18   28 1
    33   19   20 1
    34   19   21 1
    35   21   26 ar
    36   21   22 ar
    37   22   23 ar
    38   22   40 1
    39   23   24 ar
    40   23   41 1
    41   24   25 ar
    42   24   27 1
    43   25   26 ar
    44   25   42 1
    45   26   43 1
    46   28   29 3
    47   30   44 1
    48   30   45 1
@<TRIPOS>MOLECULE
ZINC07682432
   62    63     0     0     0
SMALL
USER_CHARGES
2-[ethyl-[(4-methyl-2,5-dioxo-4-phenethyl-imidazolidin-1-yl)carbamoylmethyl]amino]-N-isopropyl-acetamide
@<TRIPOS>ATOM
      1 C1          5.7803    1.4481   -4.6757 C.3       1 <0>        -0.1850
      2 C2          5.7405    0.7874   -3.2962 C.3       1 <0>        -0.0144
      3 C3          7.1323    2.4217   -2.1761 C.3       1 <0>        -0.0316
      4 C4          7.0441    3.7599   -1.4886 C.2       1 <0>         0.4945
      5 O1          5.9614    4.2201   -1.1940 O.2       1 <0>        -0.5237
      6 N1          8.1685    4.4452   -1.2013 N.am      1 <0>        -0.6974
      7 C5          8.0828    5.7460   -0.5329 C.3       1 <0>         0.1330
      8 C6          7.9984    5.5373    0.9804 C.3       1 <0>        -0.1675
      9 C7          9.3265    6.5730   -0.8651 C.3       1 <0>        -0.1668
     10 C8          5.3801    1.2824   -0.9537 C.3       1 <0>        -0.0160
     11 C9          3.9230    0.9017   -1.0072 C.2       1 <0>         0.5146
     12 O2          3.2908    1.0647   -2.0294 O.2       1 <0>        -0.4969
     13 N2          3.3222    0.3802    0.0807 N.am      1 <0>        -0.4827
     14 N3          1.9676    0.0264    0.0309 N.am      1 <0>        -0.3788
     15 C10         1.5188   -1.2420   -0.0464 C.2       1 <0>         0.5345
     16 O3          2.1857   -2.2537   -0.0848 O.2       1 <0>        -0.4389
     17 C11         0.0066   -1.1406   -0.0763 C.3       1 <0>         0.1375
     18 N4         -0.2445    0.3093   -0.0058 N.am      1 <0>        -0.7037
     19 C12         0.9597    0.9059    0.0537 C.2       1 <0>         0.7073
     20 O4          1.1147    2.1095    0.1204 O.2       1 <0>        -0.5202
     21 C13        -0.6079   -1.8527    1.1303 C.3       1 <0>        -0.1551
     22 C14        -0.5460   -1.7198   -1.3801 C.3       1 <0>        -0.1094
     23 C15        -2.0376   -1.3970   -1.4898 C.3       1 <0>        -0.0780
     24 C16        -2.5820   -1.9676   -2.7740 C.ar      1 <0>        -0.0908
     25 C17        -2.5741   -1.2052   -3.9271 C.ar      1 <0>        -0.1165
     26 C18        -3.0694   -1.7302   -5.1061 C.ar      1 <0>        -0.1176
     27 C19        -3.5814   -3.0140   -5.1298 C.ar      1 <0>        -0.1182
     28 C20        -3.5936   -3.7746   -3.9755 C.ar      1 <0>        -0.1161
     29 C21        -3.0943   -3.2513   -2.7976 C.ar      1 <0>        -0.1140
     30 H1          5.6356    0.6904   -5.4458 H         1 <0>         0.1106
     31 H2          4.9872    2.1926   -4.7449 H         1 <0>         0.0836
     32 H3          6.7465    1.9319   -4.8190 H         1 <0>         0.0787
     33 H4          6.5955    0.1199   -3.1883 H         1 <0>         0.1363
     34 H5          4.8181    0.2158   -3.1936 H         1 <0>         0.1406
     35 H6          7.7911    1.7644   -1.6087 H         1 <0>         0.1654
     36 H7          7.5307    2.5555   -3.1818 H         1 <0>         0.1681
     37 H8          9.0344    4.0771   -1.4369 H         1 <0>         0.4104
     38 H9          7.1932    6.2735   -0.8771 H         1 <0>         0.0977
     39 H10         7.9346    6.5052    1.4777 H         1 <0>         0.0779
     40 H11         7.1124    4.9482    1.2171 H         1 <0>         0.0597
     41 H12         8.8880    5.0099    1.3246 H         1 <0>         0.0627
     42 H13         9.3866    6.7217   -1.9432 H         1 <0>         0.0662
     43 H14         9.2627    7.5408   -0.3678 H         1 <0>         0.0840
     44 H15        10.2161    6.0455   -0.5209 H         1 <0>         0.0669
     45 H16         5.5302    2.0379   -0.1824 H         1 <0>         0.1679
     46 H17         5.9775    0.4011   -0.7201 H         1 <0>         0.1721
     47 H18         3.8278    0.2499    0.8982 H         1 <0>         0.4369
     48 H19        -1.1095    0.7483   -0.0064 H         1 <0>         0.4494
     49 H20        -1.6859   -1.6913    1.1372 H         1 <0>         0.0933
     50 H21        -0.4008   -2.9209    1.0661 H         1 <0>         0.0927
     51 H22        -0.1749   -1.4531    2.0474 H         1 <0>         0.0729
     52 H23        -0.0163   -1.2814   -2.2259 H         1 <0>         0.0781
     53 H24        -0.4069   -2.8009   -1.3852 H         1 <0>         0.0986
     54 H25        -2.5673   -1.8355   -0.6440 H         1 <0>         0.0851
     55 H26        -2.1767   -0.3160   -1.4847 H         1 <0>         0.0756
     56 H27        -2.1778   -0.2007   -3.9076 H         1 <0>         0.1192
     57 H28        -3.0595   -1.1360   -6.0079 H         1 <0>         0.1229
     58 H29        -3.9715   -3.4229   -6.0501 H         1 <0>         0.1238
     59 H30        -3.9936   -4.7777   -3.9941 H         1 <0>         0.1248
     60 H31        -3.1042   -3.8454   -1.8957 H         1 <0>         0.1236
     61 N5          5.7747    1.8436   -2.2628 N.4       1 <0>        -0.3724
     62 H32         5.1126    2.5846   -2.5213 H         1 <0>         0.4447
@<TRIPOS>BOND
     1    1    2 1
     2    1   30 1
     3    1   31 1
     4    1   32 1
     5    2   33 1
     6    2   34 1
     7    2   61 1
     8    3    4 1
     9    3   35 1
    10    3   36 1
    11    3   61 1
    12    4    5 2
    13    4    6 am
    14    6    7 1
    15    6   37 1
    16    7    8 1
    17    7    9 1
    18    7   38 1
    19    8   39 1
    20    8   40 1
    21    8   41 1
    22    9   42 1
    23    9   43 1
    24    9   44 1
    25   10   11 1
    26   10   45 1
    27   10   46 1
    28   10   61 1
    29   11   12 2
    30   11   13 am
    31   13   14 1
    32   13   47 1
    33   14   19 am
    34   14   15 am
    35   15   16 2
    36   15   17 1
    37   17   18 1
    38   17   21 1
    39   17   22 1
    40   18   19 am
    41   18   48 1
    42   19   20 2
    43   21   49 1
    44   21   50 1
    45   21   51 1
    46   22   23 1
    47   22   52 1
    48   22   53 1
    49   23   24 1
    50   23   54 1
    51   23   55 1
    52   24   29 ar
    53   24   25 ar
    54   25   26 ar
    55   25   56 1
    56   26   27 ar
    57   26   57 1
    58   27   28 ar
    59   27   58 1
    60   28   29 ar
    61   28   59 1
    62   29   60 1
    63   61   62 1
@<TRIPOS>MOLECULE
ZINC20836814
   64    66     0     0     0
SMALL
USER_CHARGES
2-[[5-[(N'E)-N'-[1-(4-aminophenyl)ethylidene]hydrazino]-4H-1,2,4-triazol-3-yl]sulfanyl]-N-(2,2,6,6-tetramethyl-4-piperidyl)acetamide
@<TRIPOS>ATOM
      1 C1         -0.9176   15.1702   -6.6041 C.3       1 <0>        -0.1686
      2 C2         -0.5664   15.2112   -5.1391 C.2       1 <0>         0.1769
      3 N1         -0.4066   14.1046   -4.4785 N.2       1 <0>        -0.2777
      4 N2         -0.5607   12.8727   -5.1276 N.pl3     1 <0>        -0.5595
      5 C3         -0.3899   11.6906   -4.4219 C.2       1 <0>         0.5496
      6 N3         -0.5101   10.4268   -4.9298 N.2       1 <0>        -0.5563
      7 C4         -0.2666    9.5407   -3.9191 C.2       1 <0>         0.2067
      8 N4         -0.0120   10.2271   -2.8307 N.2       1 <0>        -0.3335
      9 N5         -0.0850   11.5891   -3.1508 N.pl3     1 <0>        -0.4771
     10 S1         -0.2969    7.7840   -4.0522 S.3       1 <0>         0.1110
     11 C5          0.1053    7.2101   -2.3791 C.3       1 <0>        -0.1675
     12 C6          0.1130    5.7033   -2.3531 C.2       1 <0>         0.5452
     13 O1         -0.1290    5.0782   -3.3639 O.2       1 <0>        -0.5155
     14 N6          0.3888    5.0505   -1.2068 N.am      1 <0>        -0.7391
     15 C7          0.3963    3.5825   -1.1815 C.3       1 <0>         0.1417
     16 C8          1.2982    3.1041   -0.0422 C.3       1 <0>        -0.1399
     17 C9          1.3204    1.5766   -0.0021 C.3       1 <0>         0.0719
     18 N7         -0.0116    1.0048    0.0076 N.4       1 <0>        -0.5141
     19 C10        -1.0418    1.5510   -0.8515 C.3       1 <0>         0.0543
     20 C11        -1.0215    3.0759   -0.9179 C.3       1 <0>        -0.1443
     21 C12        -0.9441    0.9754   -2.2694 C.3       1 <0>        -0.1783
     22 C13        -2.4153    1.1295   -0.2823 C.3       1 <0>        -0.1794
     23 C14         2.0349    1.1563    1.3012 C.3       1 <0>        -0.1783
     24 C15         2.1514    1.0406   -1.1717 C.3       1 <0>        -0.1789
     25 C16        -0.4043   16.5073   -4.4562 C.ar      1 <0>        -0.1268
     26 C17        -0.5702   17.6993   -5.1669 C.ar      1 <0>        -0.0343
     27 C18        -0.4226   18.9088   -4.5239 C.ar      1 <0>        -0.2090
     28 C19        -0.0985   18.9446   -3.1720 C.ar      1 <0>         0.2512
     29 C20         0.0726   17.7607   -2.4628 C.ar      1 <0>        -0.2131
     30 C21        -0.0786   16.5474   -3.0975 C.ar      1 <0>        -0.0241
     31 N8          0.0560   20.1718   -2.5255 N.pl3     1 <0>        -0.8920
     32 H1         -1.0109   16.1969   -6.9876 H         1 <0>         0.0937
     33 H2         -1.8725   14.6408   -6.7375 H         1 <0>         0.0841
     34 H3         -0.1257   14.6430   -7.1564 H         1 <0>         0.0842
     35 H4         -0.8171   12.8427   -6.1969 H         1 <0>         0.4356
     36 H5          1.0978    7.5869   -2.0909 H         1 <0>         0.1255
     37 H6         -0.6489    7.5852   -1.6716 H         1 <0>         0.1251
     38 H7          0.6083    5.6175   -0.2901 H         1 <0>         0.4309
     39 H8          0.7676    3.2399   -2.1586 H         1 <0>         0.1078
     40 H9          2.3204    3.4775   -0.2023 H         1 <0>         0.1155
     41 H10         0.9139    3.4864    0.9149 H         1 <0>         0.0959
     42 H11         0.0421   -0.0547   -0.2833 H         1 <0>         0.4464
     43 H12        -1.3831    3.4797    0.0393 H         1 <0>         0.0909
     44 H13        -1.6859    3.4067   -1.7298 H         1 <0>         0.1121
     45 H14        -1.7376    1.4083   -2.8963 H         1 <0>         0.1052
     46 H15        -1.0627   -0.1175   -2.2304 H         1 <0>         0.0826
     47 H16         0.0381    1.2225   -2.6986 H         1 <0>         0.0814
     48 H17        -3.2158    1.5335   -0.9194 H         1 <0>         0.1070
     49 H18        -2.5255    1.5232    0.7389 H         1 <0>         0.0812
     50 H19        -2.4822    0.0317   -0.2612 H         1 <0>         0.0844
     51 H20         2.0690    0.0586    1.3630 H         1 <0>         0.0839
     52 H21         1.4847    1.5554    2.1661 H         1 <0>         0.0814
     53 H22         3.0599    1.5556    1.3026 H         1 <0>         0.1057
     54 H23         2.1645   -0.0588   -1.1387 H         1 <0>         0.0837
     55 H24         3.1803    1.4220   -1.0956 H         1 <0>         0.1050
     56 H25         1.7062    1.3737   -2.1208 H         1 <0>         0.0829
     57 H26        -0.8176   17.6723   -6.2178 H         1 <0>         0.1306
     58 H27        -0.5550   19.8303   -5.0714 H         1 <0>         0.1259
     59 H28         0.3239   17.7925   -1.4129 H         1 <0>         0.1231
     60 H29         0.0541   15.6283   -2.5460 H         1 <0>         0.1265
     61 H30         0.3123   20.2017   -1.4562 H         1 <0>         0.4205
     62 H31        -0.0786   21.1091   -3.0852 H         1 <0>         0.4213
     63 H32         0.0627   12.4963   -2.5465 H         1 <0>         0.4758
     64 H33        -0.4383    1.0864    1.0182 H         1 <0>         0.4431
@<TRIPOS>BOND
     1    1    2 1
     2    1   32 1
     3    1   33 1
     4    1   34 1
     5    2    3 2
     6    2   25 1
     7    3    4 1
     8    4    5 1
     9    4   35 1
    10    5    9 1
    11    5    6 2
    12    6    7 1
    13    7    8 2
    14    7   10 1
    15    8    9 1
    16    9   63 1
    17   10   11 1
    18   11   12 1
    19   11   36 1
    20   11   37 1
    21   12   13 2
    22   12   14 am
    23   14   15 1
    24   14   38 1
    25   15   20 1
    26   15   16 1
    27   15   39 1
    28   16   17 1
    29   16   40 1
    30   16   41 1
    31   17   18 1
    32   17   23 1
    33   17   24 1
    34   18   19 1
    35   18   42 1
    36   18   64 1
    37   19   20 1
    38   19   21 1
    39   19   22 1
    40   20   43 1
    41   20   44 1
    42   21   45 1
    43   21   46 1
    44   21   47 1
    45   22   48 1
    46   22   49 1
    47   22   50 1
    48   23   51 1
    49   23   52 1
    50   23   53 1
    51   24   54 1
    52   24   55 1
    53   24   56 1
    54   25   30 ar
    55   25   26 ar
    56   26   27 ar
    57   26   57 1
    58   27   28 ar
    59   27   58 1
    60   28   29 ar
    61   28   31 1
    62   29   30 ar
    63   29   59 1
    64   30   60 1
    65   31   61 1
    66   31   62 1
@<TRIPOS>MOLECULE
ZINC39685850
   77    80     0     0     0
SMALL
USER_CHARGES

@<TRIPOS>ATOM
      1 C1         -0.5843   -3.2580   -1.5387 C.3       1 <0>        -0.1644
      2 C2          0.5321   -2.2334   -1.3274 C.3       1 <0>        -0.1018
      3 C3          1.3409   -2.0869   -2.6179 C.3       1 <0>        -0.1494
      4 C4         -0.0801   -0.8821   -0.9531 C.3       1 <0>         0.1251
      5 H1         -0.7601   -1.0120   -0.1112 H         1 <0>         0.1209
      6 C5          1.0168    0.0774   -0.5694 C.2       1 <0>         0.5146
      7 O1          1.3796    0.9287   -1.3534 O.2       1 <0>        -0.5295
      8 N1          1.5948   -0.0106    0.6450 N.am      1 <0>        -0.7152
      9 C6          2.5817    0.9891    1.0607 C.3       1 <0>         0.1687
     10 C7          1.9351    2.3758    1.0586 C.3       1 <0>        -0.1639
     11 C8          3.0785    0.6601    2.4699 C.3       1 <0>        -0.1596
     12 C9          3.7624    0.9754    0.0876 C.3       1 <0>        -0.1651
     13 N2         -0.8187   -0.3463   -2.0992 N.am      1 <0>        -0.7044
     14 C10        -2.1437   -0.5669   -2.2099 C.2       1 <0>         0.5232
     15 O2         -2.7324   -1.1723   -1.3393 O.2       1 <0>        -0.5168
     16 C11        -2.8936   -0.0614   -3.4153 C.3       1 <0>        -0.1128
     17 H2         -2.4254    0.8445   -3.8003 H         1 <0>         0.1166
     18 C12        -4.3718    0.2084   -3.0551 C.3       1 <0>         0.1008
     19 N3         -5.1324   -0.2112   -4.2557 N.am      1 <0>        -0.6212
     20 C13        -4.4425   -1.4390   -4.7187 C.3       1 <0>         0.1115
     21 C14        -2.9443   -1.1434   -4.5069 C.3       1 <0>        -0.0719
     22 C15        -2.3219   -0.6209   -5.7982 C.3       1 <0>        -0.1360
     23 C16        -2.3326   -1.7330   -6.8508 C.3       1 <0>        -0.0113
     24 N4         -1.5768   -2.8884   -6.3522 N.4       1 <0>        -0.5048
     25 C17        -2.2347   -3.4417   -5.1624 C.3       1 <0>        -0.0086
     26 C18        -2.2201   -2.4018   -4.0384 C.3       1 <0>        -0.1613
     27 C19        -6.2083    0.3882   -4.8031 C.2       1 <0>         0.5537
     28 O3         -6.7245   -0.0811   -5.7952 O.2       1 <0>        -0.4946
     29 C20        -6.7699    1.6413   -4.1825 C.3       1 <0>         0.0385
     30 H3         -5.9853    2.3933   -4.0986 H         1 <0>         0.1113
     31 C21        -7.3319    1.3224   -2.7905 C.3       1 <0>         0.0325
     32 O4         -7.8687    2.5287   -2.2367 O.3       1 <0>        -0.2965
     33 C22        -8.6589    3.2778   -3.0533 C.ar      1 <0>         0.0429
     34 C23        -9.4912    4.2396   -2.5002 C.ar      1 <0>        -0.1084
     35 C24       -10.2969    5.0103   -3.3167 C.ar      1 <0>        -0.1091
     36 C25       -10.2758    4.8248   -4.6865 C.ar      1 <0>        -0.1091
     37 C26        -9.4499    3.8672   -5.2440 C.ar      1 <0>        -0.1073
     38 C27        -8.6396    3.0895   -4.4301 C.ar      1 <0>         0.0463
     39 O5         -7.8370    2.1452   -4.9933 O.3       1 <0>        -0.2800
     40 H4         -0.1689   -4.1606   -1.9870 H         1 <0>         0.0581
     41 H5         -1.0375   -3.5047   -0.5786 H         1 <0>         0.0654
     42 H6         -1.3417   -2.8388   -2.2010 H         1 <0>         0.0678
     43 H7          1.1874   -2.5704   -0.5242 H         1 <0>         0.0888
     44 H8          1.6992   -3.0662   -2.9352 H         1 <0>         0.0621
     45 H9          0.7082   -1.6616   -3.3969 H         1 <0>         0.0486
     46 H10         2.1914   -1.4286   -2.4409 H         1 <0>         0.0640
     47 H11         1.3572   -0.7358    1.2438 H         1 <0>         0.4022
     48 H12         1.0940    2.3855    1.7518 H         1 <0>         0.0559
     49 H13         2.6695    3.1195    1.3678 H         1 <0>         0.0689
     50 H14         1.5812    2.6101    0.0546 H         1 <0>         0.0729
     51 H15         3.5391   -0.3277    2.4714 H         1 <0>         0.0641
     52 H16         3.8128    1.4039    2.7791 H         1 <0>         0.0786
     53 H17         2.2374    0.6699    3.1631 H         1 <0>         0.0644
     54 H18         3.4085    1.2098   -0.9164 H         1 <0>         0.0793
     55 H19         4.4967    1.7192    0.3969 H         1 <0>         0.0663
     56 H20         4.2230   -0.0124    0.0891 H         1 <0>         0.0542
     57 H21        -0.3541    0.1673   -2.7784 H         1 <0>         0.4110
     58 H22        -4.6671   -0.3868   -2.1910 H         1 <0>         0.1085
     59 H23        -4.5275    1.2691   -2.8581 H         1 <0>         0.0958
     60 H24        -4.7502   -2.2968   -4.1206 H         1 <0>         0.0902
     61 H25        -4.6488   -1.6163   -5.7742 H         1 <0>         0.0930
     62 H26        -2.8982    0.2299   -6.1617 H         1 <0>         0.1195
     63 H27        -1.2946   -0.3104   -5.6073 H         1 <0>         0.0988
     64 H28        -3.3612   -2.0317   -7.0530 H         1 <0>         0.1350
     65 H29        -1.8735   -1.3678   -7.7695 H         1 <0>         0.1413
     66 H30        -1.5335   -3.5956   -7.0705 H         1 <0>         0.4352
     67 H31        -3.2655   -3.7002   -5.4046 H         1 <0>         0.1351
     68 H32        -1.7034   -4.3359   -4.8366 H         1 <0>         0.1405
     69 H33        -1.1893   -2.1551   -3.7842 H         1 <0>         0.1068
     70 H34        -2.7248   -2.8068   -3.1613 H         1 <0>         0.1329
     71 H35        -8.1200    0.5741   -2.8749 H         1 <0>         0.0862
     72 H36        -6.5345    0.9465   -2.1494 H         1 <0>         0.1248
     73 H37        -9.5100    4.3860   -1.4303 H         1 <0>         0.1387
     74 H38       -10.9445    5.7585   -2.8839 H         1 <0>         0.1377
     75 H39       -10.9062    5.4291   -5.3221 H         1 <0>         0.1378
     76 H40        -9.4353    3.7244   -6.3144 H         1 <0>         0.1379
     77 H41        -0.6406   -2.5982   -6.1128 H         1 <0>         0.4277
@<TRIPOS>BOND
     1    1    2 1
     2    1   40 1
     3    1   41 1
     4    1   42 1
     5    2    3 1
     6    2    4 1
     7    2   43 1
     8    3   44 1
     9    3   45 1
    10    3   46 1
    11    4    5 1
    12    4    6 1
    13    4   13 1
    14    6    7 2
    15    6    8 am
    16    8    9 1
    17    8   47 1
    18    9   10 1
    19    9   11 1
    20    9   12 1
    21   10   48 1
    22   10   49 1
    23   10   50 1
    24   11   51 1
    25   11   52 1
    26   11   53 1
    27   12   54 1
    28   12   55 1
    29   12   56 1
    30   13   14 am
    31   13   57 1
    32   14   15 2
    33   14   16 1
    34   16   17 1
    35   16   21 1
    36   16   18 1
    37   18   19 1
    38   18   58 1
    39   18   59 1
    40   19   20 1
    41   19   27 am
    42   20   21 1
    43   20   60 1
    44   20   61 1
    45   21   26 1
    46   21   22 1
    47   22   23 1
    48   22   62 1
    49   22   63 1
    50   23   24 1
    51   23   64 1
    52   23   65 1
    53   24   25 1
    54   24   66 1
    55   24   77 1
    56   25   26 1
    57   25   67 1
    58   25   68 1
    59   26   69 1
    60   26   70 1
    61   27   28 2
    62   27   29 1
    63   29   30 1
    64   29   39 1
    65   29   31 1
    66   31   32 1
    67   31   71 1
    68   31   72 1
    69   32   33 1
    70   33   38 ar
    71   33   34 ar
    72   34   35 ar
    73   34   73 1
    74   35   36 ar
    75   35   74 1
    76   36   37 ar
    77   36   75 1
    78   37   38 ar
    79   37   76 1
    80   38   39 1
@<TRIPOS>MOLECULE
ZINC20573400
   65    68     0     0     0
SMALL
USER_CHARGES

@<TRIPOS>ATOM
      1 C1         -0.2589    1.4939    0.1699 C.3       1 <0>        -0.1613
      2 C2          0.0021   -0.0042    0.0019 C.3       1 <0>         0.1262
      3 H1          0.5355   -0.1775   -0.9327 H         1 <0>         0.1153
      4 C3          0.8348   -0.5015    1.1553 C.2       1 <0>         0.5204
      5 O1          0.2953   -0.9725    2.1341 O.2       1 <0>        -0.5212
      6 N1          2.1791   -0.4228    1.0992 N.am      1 <0>        -0.6148
      7 C4          2.8436    0.2488   -0.0262 C.3       1 <0>         0.0978
      8 C5          3.7961    1.3131    0.5279 C.3       1 <0>        -0.1263
      9 C6          4.7527    0.6656    1.5297 C.3       1 <0>         0.1880
     10 C7          3.9594    0.0705    2.6934 C.3       1 <0>        -0.1644
     11 C8          3.0084   -1.0015    2.1652 C.3       1 <0>         0.1100
     12 C9          5.7174    1.7001    2.0504 C.2       1 <0>         0.0297
     13 C10         7.0442    1.4738    2.1872 C.2       1 <0>         0.0770
     14 N2          7.5974    2.6145    2.6749 N.pl3     1 <0>        -0.4998
     15 H2          8.5348    2.7609    2.8768 H         1 <0>         0.4667
     16 C11         6.5917    3.5084    2.8252 C.cat     1 <0>         0.2968
     17 N3          5.4708    2.9490    2.4481 N.pl3     1 <0>        -0.4603
     18 C12         7.7035    0.1637    1.8411 C.3       1 <0>        -0.0564
     19 C13         6.6031   -0.9004    1.7210 C.3       1 <0>         0.0484
     20 N4          5.5215   -0.3964    0.8622 N.3       1 <0>        -0.6738
     21 N5         -1.2745   -0.7225   -0.0240 N.am      1 <0>        -0.7140
     22 C14        -1.9565   -0.8431   -1.1803 C.2       1 <0>         0.5709
     23 O2         -1.5122   -0.3558   -2.2018 O.2       1 <0>        -0.5259
     24 C15        -3.2428   -1.5667   -1.2064 C.ar      1 <0>        -0.0685
     25 C16        -3.7572   -2.1221   -0.0323 C.ar      1 <0>        -0.2007
     26 C17        -4.9622   -2.7989   -0.0594 C.ar      1 <0>         0.1445
     27 C18        -5.6629   -2.9277   -1.2556 C.ar      1 <0>         0.0612
     28 C19        -5.1522   -2.3755   -2.4272 C.ar      1 <0>         0.1438
     29 C20        -3.9506   -1.6924   -2.4043 C.ar      1 <0>        -0.1699
     30 O3         -5.8388   -2.5035   -3.5942 O.3       1 <0>        -0.2973
     31 C21        -5.2565   -1.9126   -4.7577 C.3       1 <0>         0.0213
     32 O4         -6.8471   -3.5939   -1.2797 O.3       1 <0>        -0.3116
     33 C22        -8.0289   -2.8249   -1.0471 C.3       1 <0>         0.0355
     34 O5         -5.4635   -3.3397    1.0834 O.3       1 <0>        -0.2971
     35 C23        -4.6920   -3.1701    2.2742 C.3       1 <0>         0.0217
     36 H3          0.6911    2.0276    0.1960 H         1 <0>         0.0687
     37 H4         -0.8556    1.8550   -0.6678 H         1 <0>         0.0830
     38 H5         -0.7983    1.6666    1.1013 H         1 <0>         0.0695
     39 H6          3.4087   -0.4814   -0.6054 H         1 <0>         0.0893
     40 H7          2.0958    0.7230   -0.6619 H         1 <0>         0.1044
     41 H8          4.3680    1.7507   -0.2903 H         1 <0>         0.1007
     42 H9          3.2200    2.0924    1.0268 H         1 <0>         0.0760
     43 H10         4.6472   -0.3742    3.4126 H         1 <0>         0.0903
     44 H11         3.3824    0.8569    3.1800 H         1 <0>         0.0811
     45 H12         2.3693   -1.3524    2.9755 H         1 <0>         0.1095
     46 H13         3.5870   -1.8347    1.7664 H         1 <0>         0.0745
     47 H14         6.6973    4.5172    3.1961 H         1 <0>         0.2692
     48 H15         8.2323    0.2562    0.8924 H         1 <0>         0.1169
     49 H16         8.4032   -0.1165    2.6285 H         1 <0>         0.1081
     50 H17         7.0211   -1.8070    1.2835 H         1 <0>         0.1103
     51 H18         6.2061   -1.1253    2.7109 H         1 <0>         0.0558
     52 H19         4.9172   -1.1473    0.5638 H         1 <0>         0.3707
     53 H20        -1.6290   -1.1112    0.7909 H         1 <0>         0.4109
     54 H21        -3.2137   -2.0230    0.8957 H         1 <0>         0.1379
     55 H22        -3.5572   -1.2602   -3.3124 H         1 <0>         0.1513
     56 H23        -5.9041   -2.0874   -5.6169 H         1 <0>         0.1081
     57 H24        -5.1415   -0.8399   -4.6016 H         1 <0>         0.0600
     58 H25        -4.2797   -2.3596   -4.9421 H         1 <0>         0.0611
     59 H26        -7.9732   -2.3621   -0.0618 H         1 <0>         0.0469
     60 H27        -8.1135   -2.0496   -1.8085 H         1 <0>         0.0476
     61 H28        -8.9014   -3.4766   -1.0936 H         1 <0>         0.0978
     62 H29        -5.2037   -3.6478    3.1097 H         1 <0>         0.1079
     63 H30        -3.7113   -3.6265    2.1399 H         1 <0>         0.0592
     64 H31        -4.5726   -2.1067    2.4814 H         1 <0>         0.0580
     65 H32         4.5992    3.3746    2.4567 H         1 <0>         0.4632
@<TRIPOS>BOND
     1    1    2 1
     2    1   36 1
     3    1   37 1
     4    1   38 1
     5    2    3 1
     6    2    4 1
     7    2   21 1
     8    4    5 2
     9    4    6 am
    10    6   11 1
    11    6    7 1
    12    7    8 1
    13    7   39 1
    14    7   40 1
    15    8    9 1
    16    8   41 1
    17    8   42 1
    18    9   20 1
    19    9   10 1
    20    9   12 1
    21   10   11 1
    22   10   43 1
    23   10   44 1
    24   11   45 1
    25   11   46 1
    26   12   17 1
    27   12   13 2
    28   13   14 1
    29   13   18 1
    30   14   15 1
    31   14   16 1
    32   16   17 2
    33   16   47 1
    34   17   65 1
    35   18   19 1
    36   18   48 1
    37   18   49 1
    38   19   20 1
    39   19   50 1
    40   19   51 1
    41   20   52 1
    42   21   22 am
    43   21   53 1
    44   22   23 2
    45   22   24 1
    46   24   29 ar
    47   24   25 ar
    48   25   26 ar
    49   25   54 1
    50   26   27 ar
    51   26   34 1
    52   27   28 ar
    53   27   32 1
    54   28   29 ar
    55   28   30 1
    56   29   55 1
    57   30   31 1
    58   31   56 1
    59   31   57 1
    60   31   58 1
    61   32   33 1
    62   33   59 1
    63   33   60 1
    64   33   61 1
    65   34   35 1
    66   35   62 1
    67   35   63 1
    68   35   64 1
@<TRIPOS>MOLECULE
ZINC64041969
   51    54     0     0     0
SMALL
USER_CHARGES

@<TRIPOS>ATOM
      1 C1          5.6908   -4.6366    0.7997 C.3       1 <0>        -0.1551
      2 C2          4.3161   -4.1693    1.2821 C.3       1 <0>        -0.1445
      3 C3          3.2968   -4.3321    0.1527 C.3       1 <0>         0.1123
      4 N1          1.9805   -3.8846    0.6146 N.am      1 <0>        -0.6244
      5 C4          1.0514   -4.8278    1.2585 C.3       1 <0>         0.3617
      6 H1          0.8629   -5.6433    0.5602 H         1 <0>         0.1339
      7 C5         -0.2879   -4.2756    1.7046 C.2       1 <0>        -0.5417
      8 C6         -0.5331   -2.9373    1.4744 C.2       1 <0>         0.5368
      9 O1         -1.7098   -2.3991    1.8535 O.3       1 <0>        -0.6129
     10 N2          0.4058   -2.1521    0.8660 N.am      1 <0>        -0.6589
     11 C7          1.6003   -2.6018    0.4632 C.2       1 <0>         0.7148
     12 O2          2.3700   -1.8229   -0.0644 O.2       1 <0>        -0.5452
     13 C8         -1.2360   -5.0890    2.3236 C.2       1 <0>         0.4540
     14 O3         -1.0444   -6.2868    2.4129 O.2       1 <0>        -0.5521
     15 C9         -2.4983   -4.4842    2.8820 C.3       1 <0>        -0.1494
     16 S1         -3.5115   -5.7871    3.6347 S.3       1 <0>         0.1554
     17 C10        -4.9309   -4.9313    4.2327 C.2       1 <0>         0.1855
     18 N3         -5.1633   -3.6322    4.1266 N.2       1 <0>        -0.2690
     19 N4         -6.2942   -3.3547    4.6743 N.2       1 <0>        -0.1541
     20 C11        -6.8310   -4.4656    5.1529 C.2       1 <0>         0.1090
     21 O4         -5.9773   -5.4798    4.8744 O.3       1 <0>        -0.1856
     22 C12        -8.0600   -4.5737    5.8200 C.2       1 <0>         0.1469
     23 C13        -8.9581   -3.5451    6.1056 C.ar      1 <0>        -0.1314
     24 C14        -8.9353   -2.1589    5.8415 C.ar      1 <0>        -0.0144
     25 C15        -9.9712   -1.3793    6.2449 C.ar      1 <0>        -0.1447
     26 C16       -11.0698   -1.9150    6.9209 C.ar      1 <0>         0.0493
     27 C17       -11.1581   -3.2369    7.2078 C.ar      1 <0>        -0.2050
     28 C18       -10.1139   -4.1149    6.8174 C.ar      1 <0>         0.3175
     29 N5         -9.9634   -5.4152    6.9746 N.pl3     1 <0>        -0.5938
     30 C19        -8.6920   -5.8313    6.3747 C.3       1 <0>         0.0831
     31 N6          1.7231   -5.3919    2.4368 N.4       1 <0>        -0.6544
     32 H2          5.9985   -4.0368   -0.0568 H         1 <0>         0.0673
     33 H3          6.4169   -4.5206    1.6042 H         1 <0>         0.0660
     34 H4          5.6362   -5.6854    0.5079 H         1 <0>         0.0608
     35 H5          4.0083   -4.7692    2.1385 H         1 <0>         0.0444
     36 H6          4.3706   -3.1205    1.5738 H         1 <0>         0.0814
     37 H7          3.6046   -3.7322   -0.7038 H         1 <0>         0.1120
     38 H8          3.2422   -5.3809   -0.1391 H         1 <0>         0.0932
     39 H9          0.1962   -1.2162    0.7213 H         1 <0>         0.4277
     40 H10        -2.2420   -3.7413    3.6373 H         1 <0>         0.1362
     41 H11        -3.0589   -4.0068    2.0783 H         1 <0>         0.1481
     42 H12        -8.0970   -1.7199    5.3210 H         1 <0>         0.1651
     43 H13        -9.9449   -0.3196    6.0384 H         1 <0>         0.1584
     44 H14       -11.8712   -1.2574    7.2239 H         1 <0>         0.1623
     45 H15       -12.0207   -3.6208    7.7323 H         1 <0>         0.1623
     46 H16        -8.8700   -6.5472    5.5722 H         1 <0>         0.1784
     47 H17        -8.0469   -6.2716    7.1350 H         1 <0>         0.1776
     48 H18         2.0503   -4.6428    3.0283 H         1 <0>         0.4208
     49 H19         1.0731   -5.9671    2.9512 H         1 <0>         0.4405
     50 H20       -10.5957   -6.0043    7.4150 H         1 <0>         0.4564
     51 H21         2.5073   -5.9534    2.1403 H         1 <0>         0.4176
@<TRIPOS>BOND
     1    1    2 1
     2    1   32 1
     3    1   33 1
     4    1   34 1
     5    2    3 1
     6    2   35 1
     7    2   36 1
     8    3    4 1
     9    3   37 1
    10    3   38 1
    11    4   11 am
    12    4    5 1
    13    5    6 1
    14    5    7 1
    15    5   31 1
    16    7    8 2
    17    7   13 1
    18    8    9 1
    19    8   10 1
    20   10   11 am
    21   10   39 1
    22   11   12 2
    23   13   14 2
    24   13   15 1
    25   15   16 1
    26   15   40 1
    27   15   41 1
    28   16   17 1
    29   17   21 1
    30   17   18 2
    31   18   19 1
    32   19   20 2
    33   20   21 1
    34   20   22 1
    35   22   30 1
    36   22   23 2
    37   23   28 ar
    38   23   24 ar
    39   24   25 ar
    40   24   42 1
    41   25   26 ar
    42   25   43 1
    43   26   27 ar
    44   26   44 1
    45   27   28 ar
    46   27   45 1
    47   28   29 2
    48   29   30 1
    49   29   50 1
    50   30   46 1
    51   30   47 1
    52   31   48 1
    53   31   49 1
    54   31   51 1
@<TRIPOS>MOLECULE
ZINC07803618
   62    63     0     0     0
SMALL
USER_CHARGES
N-(6-amino-1-butyl-2,4-dioxo-pyrimidin-5-yl)-2-(2,3-dimethylphenoxy)-N-isobutyl-acetamide
@<TRIPOS>ATOM
      1 C1          1.8329   -5.7858    4.8162 C.3       1 <0>        -0.1536
      2 C2          1.9733   -4.6325    3.8207 C.3       1 <0>        -0.1209
      3 C3          0.7743   -4.6303    2.8703 C.3       1 <0>        -0.1399
      4 C4          0.9147   -3.4770    1.8748 C.3       1 <0>         0.1031
      5 N1         -0.2334   -3.4749    0.9648 N.am      1 <0>        -0.5371
      6 C5         -0.1754   -4.1870   -0.2106 C.2       1 <0>         0.4797
      7 C6         -1.2658   -4.1812   -1.0563 C.2       1 <0>        -0.1363
      8 C7         -2.4028   -3.4349   -0.6937 C.2       1 <0>         0.5688
      9 O1         -3.3785   -3.4087   -1.4246 O.2       1 <0>        -0.5065
     10 N2         -2.4060   -2.7501    0.4667 N.am      1 <0>        -0.6629
     11 H1         -3.2133   -2.2196    0.7253 H         1 <0>         0.4401
     12 C8         -1.3361   -2.7719    1.2811 C.2       1 <0>         0.7119
     13 O2         -1.3659   -2.1451    2.3227 O.2       1 <0>        -0.5324
     14 N3         -1.2392   -4.9062   -2.2664 N.am      1 <0>        -0.5245
     15 C9         -1.0903   -6.3634   -2.2442 C.3       1 <0>         0.1010
     16 C10        -2.4712   -7.0184   -2.3169 C.3       1 <0>        -0.1144
     17 C11        -2.3106   -8.5353   -2.4354 C.3       1 <0>        -0.1473
     18 C12        -3.2604   -6.6866   -1.0489 C.3       1 <0>        -0.1503
     19 C13        -1.3509   -4.2573   -3.4442 C.2       1 <0>         0.5224
     20 O3         -1.3815   -3.0447   -3.4683 O.2       1 <0>        -0.4868
     21 C14        -1.4378   -5.0389   -4.7298 C.3       1 <0>         0.0463
     22 O4         -1.5492   -4.1345   -5.8305 O.3       1 <0>        -0.2858
     23 C15        -1.6380   -4.6810   -7.0716 C.ar      1 <0>         0.1296
     24 C16        -1.6182   -6.0597   -7.2268 C.ar      1 <0>        -0.2132
     25 C17        -1.7085   -6.6127   -8.4893 C.ar      1 <0>        -0.0817
     26 C18        -1.8181   -5.7935   -9.5981 C.ar      1 <0>        -0.1534
     27 C19        -1.8385   -4.4196   -9.4460 C.ar      1 <0>        -0.0490
     28 C20        -1.7542   -3.8617   -8.1848 C.ar      1 <0>        -0.1116
     29 C21        -1.7822   -2.3640   -8.0193 C.3       1 <0>        -0.1097
     30 C22        -1.9585   -3.5299  -10.6564 C.3       1 <0>        -0.1182
     31 N4          0.9534   -4.9001   -0.5365 N.pl3     1 <0>        -0.8329
     32 H2          1.7969   -6.7310    4.2745 H         1 <0>         0.0543
     33 H3          2.6871   -5.7874    5.4933 H         1 <0>         0.0589
     34 H4          0.9146   -5.6607    5.3900 H         1 <0>         0.0565
     35 H5          2.8915   -4.7576    3.2469 H         1 <0>         0.0654
     36 H6          2.0093   -3.6873    4.3624 H         1 <0>         0.0699
     37 H7          0.7383   -5.5755    2.3286 H         1 <0>         0.0676
     38 H8         -0.1440   -4.5052    3.4441 H         1 <0>         0.0782
     39 H9          0.9507   -2.5318    2.4165 H         1 <0>         0.1136
     40 H10         1.8329   -3.6020    1.3010 H         1 <0>         0.0925
     41 H11        -0.4923   -6.6807   -3.0985 H         1 <0>         0.0833
     42 H12        -0.5939   -6.6639   -1.3215 H         1 <0>         0.0866
     43 H13        -3.0070   -6.6406   -3.1877 H         1 <0>         0.0747
     44 H14        -1.7747   -8.9130   -1.5647 H         1 <0>         0.0572
     45 H15        -3.2943   -9.0018   -2.4873 H         1 <0>         0.0616
     46 H16        -1.7483   -8.7716   -3.3388 H         1 <0>         0.0566
     47 H17        -4.2035   -7.2332   -1.0545 H         1 <0>         0.0547
     48 H18        -2.6788   -6.9745   -0.1731 H         1 <0>         0.0487
     49 H19        -3.4613   -5.6158   -1.0157 H         1 <0>         0.0685
     50 H20        -0.5399   -5.6456   -4.8475 H         1 <0>         0.0904
     51 H21        -2.3135   -5.6874   -4.7023 H         1 <0>         0.0953
     52 H22        -1.5319   -6.6998   -6.3613 H         1 <0>         0.1255
     53 H23        -1.6931   -7.6857   -8.6107 H         1 <0>         0.1251
     54 H24        -1.8882   -6.2279  -10.5844 H         1 <0>         0.1239
     55 H25        -0.7653   -1.9743   -8.0652 H         1 <0>         0.0683
     56 H26        -2.3774   -1.9213   -8.8180 H         1 <0>         0.0671
     57 H27        -2.2243   -2.1133   -7.0551 H         1 <0>         0.0735
     58 H28        -3.0114   -3.3399  -10.8647 H         1 <0>         0.0743
     59 H29        -1.4497   -2.5852  -10.4648 H         1 <0>         0.0717
     60 H30        -1.5012   -4.0212  -11.5153 H         1 <0>         0.0692
     61 H31         1.6769   -4.9824    0.1044 H         1 <0>         0.4090
     62 H32         1.0266   -5.3211   -1.4073 H         1 <0>         0.4236
@<TRIPOS>BOND
     1    1    2 1
     2    1   32 1
     3    1   33 1
     4    1   34 1
     5    2    3 1
     6    2   35 1
     7    2   36 1
     8    3    4 1
     9    3   37 1
    10    3   38 1
    11    4    5 1
    12    4   39 1
    13    4   40 1
    14    5   12 am
    15    5    6 1
    16    6    7 2
    17    6   31 1
    18    7    8 1
    19    7   14 1
    20    8    9 2
    21    8   10 am
    22   10   11 1
    23   10   12 am
    24   12   13 2
    25   14   15 1
    26   14   19 am
    27   15   16 1
    28   15   41 1
    29   15   42 1
    30   16   17 1
    31   16   18 1
    32   16   43 1
    33   17   44 1
    34   17   45 1
    35   17   46 1
    36   18   47 1
    37   18   48 1
    38   18   49 1
    39   19   20 2
    40   19   21 1
    41   21   22 1
    42   21   50 1
    43   21   51 1
    44   22   23 1
    45   23   28 ar
    46   23   24 ar
    47   24   25 ar
    48   24   52 1
    49   25   26 ar
    50   25   53 1
    51   26   27 ar
    52   26   54 1
    53   27   28 ar
    54   27   30 1
    55   28   29 1
    56   29   55 1
    57   29   56 1
    58   29   57 1
    59   30   58 1
    60   30   59 1
    61   30   60 1
    62   31   61 1
    63   31   62 1
@<TRIPOS>MOLECULE
ZINC14623800
   61    63     0     0     0
SMALL
USER_CHARGES
N-(6-amino-1-butyl-2,4-dioxo-pyrimidin-5-yl)-N-butyl-2-(6-methylbenzofuran-3-yl)acetamide
@<TRIPOS>ATOM
      1 C1          3.2660   -3.2137    4.8019 C.3       1 <0>        -0.1536
      2 C2          3.2923   -2.0874    3.7667 C.3       1 <0>        -0.1209
      3 C3          2.1050   -2.2422    2.8143 C.3       1 <0>        -0.1398
      4 C4          2.1313   -1.1159    1.7791 C.3       1 <0>         0.1034
      5 N1          0.9944   -1.2641    0.8671 N.am      1 <0>        -0.5379
      6 C5          1.1325   -2.0069   -0.2824 C.2       1 <0>         0.4787
      7 C6          0.0526   -2.1422   -1.1308 C.2       1 <0>        -0.1387
      8 C7         -1.1574   -1.5053   -0.7971 C.2       1 <0>         0.5675
      9 O1         -2.1262   -1.6048   -1.5310 O.2       1 <0>        -0.5082
     10 N2         -1.2384   -0.7853    0.3389 N.am      1 <0>        -0.6639
     11 H1         -2.0977   -0.3327    0.5771 H         1 <0>         0.4389
     12 C8         -0.1767   -0.6684    1.1561 C.2       1 <0>         0.7119
     13 O2         -0.2772   -0.0125    2.1751 O.2       1 <0>        -0.5343
     14 N3          0.1611   -2.9015   -2.3150 N.am      1 <0>        -0.5317
     15 C9          0.3669   -4.3500   -2.2401 C.3       1 <0>         0.1027
     16 C10        -0.9867   -5.0610   -2.2972 C.3       1 <0>        -0.1371
     17 C11        -0.7718   -6.5739   -2.2189 C.3       1 <0>        -0.1214
     18 C12        -2.1253   -7.2849   -2.2760 C.3       1 <0>        -0.1538
     19 C13         0.0754   -2.2934   -3.5166 C.2       1 <0>         0.5165
     20 O3         -0.1826   -1.1096   -3.5803 O.2       1 <0>        -0.4983
     21 C14         0.3000   -3.0848   -4.7792 C.3       1 <0>        -0.0621
     22 C15         0.1483   -2.1785   -5.9737 C.2       1 <0>        -0.1655
     23 C16        -0.9563   -1.9953   -6.7097 C.2       1 <0>         0.0274
     24 O4         -0.7157   -1.1124   -7.6946 O.3       1 <0>        -0.1911
     25 C17         0.5593   -0.6763   -7.6487 C.ar      1 <0>         0.0571
     26 C18         1.1792   -1.3142   -6.5610 C.ar      1 <0>        -0.1158
     27 C19         2.5145   -1.0491   -6.2619 C.ar      1 <0>        -0.0668
     28 C20         3.2210   -0.1557   -7.0368 C.ar      1 <0>        -0.1345
     29 C21         2.6088    0.4768   -8.1090 C.ar      1 <0>        -0.0616
     30 C22         1.2911    0.2170   -8.4203 C.ar      1 <0>        -0.1087
     31 C23         3.3949    1.4513   -8.9477 C.3       1 <0>        -0.1135
     32 N4          2.3306   -2.6107   -0.5803 N.pl3     1 <0>        -0.8331
     33 H2          2.3364   -3.1643    5.3690 H         1 <0>         0.0564
     34 H3          3.3309   -4.1758    4.2937 H         1 <0>         0.0544
     35 H4          4.1119   -3.1034    5.4804 H         1 <0>         0.0588
     36 H5          4.2219   -2.1367    3.1996 H         1 <0>         0.0653
     37 H6          3.2274   -1.1253    4.2749 H         1 <0>         0.0697
     38 H7          1.1754   -2.1928    3.3813 H         1 <0>         0.0779
     39 H8          2.1699   -3.2043    2.3061 H         1 <0>         0.0676
     40 H9          3.0609   -1.1652    1.2120 H         1 <0>         0.0920
     41 H10         2.0664   -0.1538    2.2873 H         1 <0>         0.1128
     42 H11         0.9828   -4.6734   -3.0793 H         1 <0>         0.0844
     43 H12         0.8683   -4.5979   -1.3046 H         1 <0>         0.0794
     44 H13        -1.6026   -4.7377   -1.4580 H         1 <0>         0.0696
     45 H14        -1.4881   -4.8132   -3.2327 H         1 <0>         0.0676
     46 H15        -0.1559   -6.8972   -3.0581 H         1 <0>         0.0640
     47 H16        -0.2703   -6.8217   -1.2834 H         1 <0>         0.0617
     48 H17        -2.7413   -6.9615   -1.4368 H         1 <0>         0.0540
     49 H18        -2.6268   -7.0370   -3.2115 H         1 <0>         0.0551
     50 H19        -1.9722   -8.3626   -2.2203 H         1 <0>         0.0551
     51 H20         1.3046   -3.5076   -4.7692 H         1 <0>         0.1034
     52 H21        -0.4325   -3.8898   -4.8386 H         1 <0>         0.1064
     53 H22        -1.9027   -2.4861   -6.5369 H         1 <0>         0.2063
     54 H23         2.9925   -1.5414   -5.4279 H         1 <0>         0.1216
     55 H24         4.2558    0.0529   -6.8089 H         1 <0>         0.1282
     56 H25         0.8246    0.7174   -9.2560 H         1 <0>         0.1313
     57 H26         3.8754    0.9190   -9.7686 H         1 <0>         0.0742
     58 H27         2.7227    2.2091   -9.3501 H         1 <0>         0.0691
     59 H28         4.1553    1.9305   -8.3310 H         1 <0>         0.0702
     60 H29         3.0524   -2.6019    0.0676 H         1 <0>         0.4083
     61 H30         2.4543   -3.0457   -1.4384 H         1 <0>         0.4235
@<TRIPOS>BOND
     1    1    2 1
     2    1   33 1
     3    1   34 1
     4    1   35 1
     5    2    3 1
     6    2   36 1
     7    2   37 1
     8    3    4 1
     9    3   38 1
    10    3   39 1
    11    4    5 1
    12    4   40 1
    13    4   41 1
    14    5   12 am
    15    5    6 1
    16    6    7 2
    17    6   32 1
    18    7    8 1
    19    7   14 1
    20    8    9 2
    21    8   10 am
    22   10   11 1
    23   10   12 am
    24   12   13 2
    25   14   15 1
    26   14   19 am
    27   15   16 1
    28   15   42 1
    29   15   43 1
    30   16   17 1
    31   16   44 1
    32   16   45 1
    33   17   18 1
    34   17   46 1
    35   17   47 1
    36   18   48 1
    37   18   49 1
    38   18   50 1
    39   19   20 2
    40   19   21 1
    41   21   22 1
    42   21   51 1
    43   21   52 1
    44   22   26 1
    45   22   23 2
    46   23   24 1
    47   23   53 1
    48   24   25 1
    49   25   30 ar
    50   25   26 ar
    51   26   27 ar
    52   27   28 ar
    53   27   54 1
    54   28   29 ar
    55   28   55 1
    56   29   30 ar
    57   29   31 1
    58   30   56 1
    59   31   57 1
    60   31   58 1
    61   31   59 1
    62   32   60 1
    63   32   61 1
@<TRIPOS>MOLECULE
ZINC29566278
   55    56     0     0     0
SMALL
USER_CHARGES
N-[4-[[(1R)-2-(2,3-dimethyl-6-nitro-anilino)-1-methyl-2-oxo-ethyl]amino]phenyl]-2-methyl-propanamide
@<TRIPOS>ATOM
      1 C1         -1.8429   14.1415   -2.0899 C.3       1 <0>        -0.1261
      2 C2         -0.5420   13.7194   -1.4571 C.ar      1 <0>        -0.0210
      3 C3          0.4214   14.6664   -1.1607 C.ar      1 <0>        -0.1210
      4 C4          1.6164   14.2831   -0.5805 C.ar      1 <0>        -0.0468
      5 C5          1.8493   12.9529   -0.2897 C.ar      1 <0>        -0.0637
      6 C6          0.8865   11.9990   -0.5913 C.ar      1 <0>         0.2175
      7 C7         -0.3129   12.3873   -1.1741 C.ar      1 <0>        -0.0785
      8 C8         -1.3634   11.3561   -1.4970 C.3       1 <0>        -0.1066
      9 N1          1.1218   10.6500   -0.3034 N.am      1 <0>        -0.6857
     10 C9          0.2751    9.9746    0.4987 C.2       1 <0>         0.5229
     11 O1         -0.7443   10.5042    0.8877 O.2       1 <0>        -0.5147
     12 C10         0.5951    8.5612    0.9124 C.3       1 <0>         0.1425
     13 H1          0.6397    7.9139    0.0241 H         1 <0>         0.1071
     14 C11         1.9217    8.5408    1.6743 C.3       1 <0>        -0.1664
     15 N2         -0.4724    8.0518    1.7767 N.pl3     1 <0>        -0.7454
     16 C12        -0.7006    6.6747    1.8688 C.ar      1 <0>         0.2133
     17 C13        -1.7127    6.1916    2.6882 C.ar      1 <0>        -0.1747
     18 C14        -1.9374    4.8325    2.7793 C.ar      1 <0>        -0.0942
     19 C15        -1.1518    3.9485    2.0518 C.ar      1 <0>         0.0882
     20 C16        -0.1365    4.4309    1.2366 C.ar      1 <0>        -0.0698
     21 C17         0.0851    5.7903    1.1412 C.ar      1 <0>        -0.1855
     22 N3         -1.3798    2.5688    2.1447 N.am      1 <0>        -0.6828
     23 C18        -1.1854    1.7797    1.0696 C.2       1 <0>         0.5145
     24 O2         -0.8786    2.2713    0.0040 O.2       1 <0>        -0.5276
     25 C19        -1.3553    0.2871    1.1897 C.3       1 <0>        -0.1125
     26 C20        -2.7850   -0.0293    1.6334 C.3       1 <0>        -0.1468
     27 C21        -1.0854   -0.3677   -0.1665 C.3       1 <0>        -0.1361
     28 N4          3.1264   12.5442    0.3370 N.pl3     1 <0>         0.0381
     29 O3          3.9323   13.3890    0.6840 O.2       1 <0>        -0.1613
     30 O4          3.3714   11.3631    0.5058 O.3       1 <0>        -0.1646
     31 H2         -1.8419   15.2315   -2.2381 H         1 <0>         0.0773
     32 H3         -2.6786   13.8617   -1.4316 H         1 <0>         0.0843
     33 H4         -1.9578   13.6394   -3.0618 H         1 <0>         0.0836
     34 H5          0.2396   15.7076   -1.3826 H         1 <0>         0.1503
     35 H6          2.3665   15.0250   -0.3499 H         1 <0>         0.1575
     36 H7         -1.0023   10.3599   -1.2016 H         1 <0>         0.0690
     37 H8         -1.5674   11.3666   -2.5779 H         1 <0>         0.0725
     38 H9         -2.2872   11.5892   -0.9472 H         1 <0>         0.0830
     39 H10         1.9978   10.1409   -0.7317 H         1 <0>         0.4497
     40 H11         2.1553    7.5092    1.9763 H         1 <0>         0.0754
     41 H12         1.8404    9.1753    2.5692 H         1 <0>         0.0652
     42 H13         2.7232    8.9233    1.0252 H         1 <0>         0.0805
     43 H14        -1.0945    8.7522    2.3533 H         1 <0>         0.4285
     44 H15        -2.3235    6.8791    3.2544 H         1 <0>         0.1235
     45 H16        -2.7246    4.4568    3.4162 H         1 <0>         0.1234
     46 H17         0.4771    3.7429    0.6740 H         1 <0>         0.1310
     47 H18         0.8721    6.1657    0.5039 H         1 <0>         0.1221
     48 H19        -1.7174    2.1299    3.0952 H         1 <0>         0.4291
     49 H20        -0.6401   -0.0896    1.9357 H         1 <0>         0.0996
     50 H21        -2.9091   -1.1188    1.7211 H         1 <0>         0.0707
     51 H22        -3.4948    0.3619    0.8896 H         1 <0>         0.0623
     52 H23        -2.9790    0.4415    2.6085 H         1 <0>         0.0599
     53 H24        -1.2094   -1.4572   -0.0788 H         1 <0>         0.0636
     54 H25        -0.0575   -0.1401   -0.4854 H         1 <0>         0.0627
     55 H26        -1.7952    0.0235   -0.9103 H         1 <0>         0.0631
@<TRIPOS>BOND
     1    1    2 1
     2    1   31 1
     3    1   32 1
     4    1   33 1
     5    2    7 ar
     6    2    3 ar
     7    3    4 ar
     8    3   34 1
     9    4    5 ar
    10    4   35 1
    11    5    6 ar
    12    5   28 1
    13    6    7 ar
    14    6    9 1
    15    7    8 1
    16    8   36 1
    17    8   37 1
    18    8   38 1
    19    9   10 am
    20    9   39 1
    21   10   11 2
    22   10   12 1
    23   12   13 1
    24   12   14 1
    25   12   15 1
    26   14   40 1
    27   14   41 1
    28   14   42 1
    29   15   16 1
    30   15   43 1
    31   16   21 ar
    32   16   17 ar
    33   17   18 ar
    34   17   44 1
    35   18   19 ar
    36   18   45 1
    37   19   20 ar
    38   19   22 1
    39   20   21 ar
    40   20   46 1
    41   21   47 1
    42   22   23 am
    43   22   48 1
    44   23   24 2
    45   23   25 1
    46   25   26 1
    47   25   27 1
    48   25   49 1
    49   26   50 1
    50   26   51 1
    51   26   52 1
    52   27   53 1
    53   27   54 1
    54   27   55 1
    55   28   29 2
    56   28   30 1
@<TRIPOS>MOLECULE
ZINC56163072
   49    50     0     0     0
SMALL
USER_CHARGES

@<TRIPOS>ATOM
      1 C1         -0.1098   -1.9187    1.1981 C.3       1 <0>        -0.1390
      2 C2         -0.3672   -1.1360   -0.0911 C.3       1 <0>        -0.1431
      3 C3          0.4083   -1.7615   -1.2219 C.2       1 <0>         0.5092
      4 O1          1.0989   -2.7373   -1.0168 O.2       1 <0>        -0.5239
      5 N1          0.3344   -1.2366   -2.4610 N.am      1 <0>        -0.6734
      6 C4          1.1298   -1.7569   -3.4910 C.ar      1 <0>         0.0843
      7 C5          1.6528   -0.9102   -4.4593 C.ar      1 <0>        -0.0920
      8 C6          2.4367   -1.4225   -5.4738 C.ar      1 <0>        -0.1708
      9 C7          2.7022   -2.7848   -5.5257 C.ar      1 <0>         0.2062
     10 C8          2.1789   -3.6315   -4.5570 C.ar      1 <0>        -0.1828
     11 C9          1.3994   -3.1181   -3.5397 C.ar      1 <0>        -0.0686
     12 N2          3.4961   -3.3041   -6.5538 N.pl3     1 <0>        -0.7326
     13 C10         3.7761   -4.7410   -6.6085 C.3       1 <0>         0.1384
     14 H1          3.8679   -5.1321   -5.5952 H         1 <0>         0.1128
     15 C11         2.6319   -5.4565   -7.3295 C.3       1 <0>        -0.1695
     16 C12         5.0640   -4.9738   -7.3555 C.2       1 <0>         0.5129
     17 O2          5.6868   -4.0321   -7.7985 O.2       1 <0>        -0.5070
     18 N3          5.5239   -6.2285   -7.5312 N.am      1 <0>        -0.6672
     19 C13         6.7718   -6.4391   -8.1279 C.ar      1 <0>         0.1472
     20 C14         6.9849   -7.5614   -8.9179 C.ar      1 <0>        -0.0937
     21 C15         8.2177   -7.7664   -9.5054 C.ar      1 <0>        -0.0949
     22 C16         9.2396   -6.8556   -9.3078 C.ar      1 <0>        -0.0371
     23 C17         9.0308   -5.7376   -8.5216 C.ar      1 <0>        -0.0240
     24 C18         7.7981   -5.5236   -7.9361 C.ar      1 <0>        -0.0633
     25 N4         10.1275   -4.7660   -8.3119 N.pl3     1 <0>         0.0300
     26 O3         10.2683   -4.2367   -7.2341 O.2       1 <0>        -0.1519
     27 O4         10.8824   -4.5016   -9.2185 O.3       1 <0>        -0.1419
     28 C19        10.5837   -7.0824   -9.9505 C.3       1 <0>        -0.1263
     29 H2         -0.4301   -2.9522    1.0658 H         1 <0>         0.0623
     30 H3          0.9548   -1.8953    1.4309 H         1 <0>         0.0625
     31 H4         -0.6706   -1.4663    2.0159 H         1 <0>         0.0635
     32 H5         -1.4317   -1.1595   -0.3240 H         1 <0>         0.0955
     33 H6         -0.0468   -0.1026    0.0411 H         1 <0>         0.0960
     34 H7         -0.2693   -0.4987   -2.6400 H         1 <0>         0.4091
     35 H8          1.4460    0.1491   -4.4191 H         1 <0>         0.1261
     36 H9          2.8432   -0.7640   -6.2271 H         1 <0>         0.1259
     37 H10         2.3853   -4.6908   -4.5972 H         1 <0>         0.1232
     38 H11         0.9962   -3.7758   -2.7840 H         1 <0>         0.1379
     39 H12         3.8612   -2.7127   -7.2305 H         1 <0>         0.4099
     40 H13         2.8402   -6.5256   -7.3702 H         1 <0>         0.0698
     41 H14         1.7003   -5.2881   -6.7892 H         1 <0>         0.0808
     42 H15         2.5400   -5.0654   -8.3428 H         1 <0>         0.0685
     43 H16         4.9897   -6.9855   -7.2439 H         1 <0>         0.4200
     44 H17         6.1875   -8.2731   -9.0723 H         1 <0>         0.1480
     45 H18         8.3842   -8.6390  -10.1196 H         1 <0>         0.1538
     46 H19         7.6340   -4.6476   -7.3263 H         1 <0>         0.1588
     47 H20        10.6373   -6.5266  -10.8866 H         1 <0>         0.0956
     48 H21        11.3703   -6.7392   -9.2785 H         1 <0>         0.0737
     49 H22        10.7156   -8.1456  -10.1512 H         1 <0>         0.0809
@<TRIPOS>BOND
     1    1    2 1
     2    1   29 1
     3    1   30 1
     4    1   31 1
     5    2    3 1
     6    2   32 1
     7    2   33 1
     8    3    4 2
     9    3    5 am
    10    5    6 1
    11    5   34 1
    12    6   11 ar
    13    6    7 ar
    14    7    8 ar
    15    7   35 1
    16    8    9 ar
    17    8   36 1
    18    9   10 ar
    19    9   12 1
    20   10   11 ar
    21   10   37 1
    22   11   38 1
    23   12   13 1
    24   12   39 1
    25   13   14 1
    26   13   15 1
    27   13   16 1
    28   15   40 1
    29   15   41 1
    30   15   42 1
    31   16   17 2
    32   16   18 am
    33   18   19 1
    34   18   43 1
    35   19   24 ar
    36   19   20 ar
    37   20   21 ar
    38   20   44 1
    39   21   22 ar
    40   21   45 1
    41   22   23 ar
    42   22   28 1
    43   23   24 ar
    44   23   25 1
    45   24   46 1
    46   25   26 2
    47   25   27 1
    48   28   47 1
    49   28   48 1
    50   28   49 1
@<TRIPOS>MOLECULE
ZINC07795895
   58    60     0     0     0
SMALL
USER_CHARGES

@<TRIPOS>ATOM
      1 C1          7.8050   -1.5896   -5.7386 C.3       1 <0>        -0.1536
      2 C2          6.5983   -0.8980   -5.1010 C.3       1 <0>        -0.1207
      3 C3          5.4609   -1.9077   -4.9345 C.3       1 <0>        -0.1402
      4 C4          4.2543   -1.2160   -4.2968 C.3       1 <0>         0.1040
      5 N1          3.1652   -2.1828   -4.1374 N.am      1 <0>        -0.5373
      6 C5          2.2498   -2.3544   -5.1496 C.2       1 <0>         0.4866
      7 C6          1.2288   -3.2688   -4.9869 C.2       1 <0>        -0.1448
      8 C7          1.1564   -3.9995   -3.7858 C.2       1 <0>         0.5683
      9 O1          0.2650   -4.8140   -3.6157 O.2       1 <0>        -0.5055
     10 N2          2.0788   -3.7930   -2.8256 N.am      1 <0>        -0.6589
     11 H1          2.0298   -4.2960   -1.9976 H         1 <0>         0.4335
     12 C8          3.0696   -2.9014   -3.0041 C.2       1 <0>         0.7123
     13 O2          3.8918   -2.7386   -2.1230 O.2       1 <0>        -0.5315
     14 N3          0.2746   -3.4673   -6.0059 N.am      1 <0>        -0.5181
     15 C9          0.6848   -4.0330   -7.2935 C.3       1 <0>         0.0982
     16 C10         0.4146   -5.5389   -7.2983 C.3       1 <0>        -0.1301
     17 C11         0.8431   -6.1296   -8.6430 C.3       1 <0>        -0.1177
     18 C12         0.5728   -7.6356   -8.6479 C.3       1 <0>        -0.1522
     19 C13        -1.0149   -3.1367   -5.7952 C.2       1 <0>         0.6052
     20 O3         -1.3702   -2.7384   -4.7014 O.2       1 <0>        -0.4872
     21 C14        -1.9920   -3.2571   -6.8864 C.2       1 <0>        -0.0379
     22 C15        -3.2840   -2.8423   -6.8279 C.2       1 <0>        -0.0703
     23 C16        -3.8711   -3.1614   -8.1288 C.ar      1 <0>        -0.1424
     24 C17        -5.1378   -2.9925   -8.6932 C.ar      1 <0>        -0.0571
     25 C18        -5.3703   -3.4112   -9.9728 C.ar      1 <0>        -0.1389
     26 C19        -4.3567   -4.0027  -10.7144 C.ar      1 <0>        -0.0807
     27 C20        -3.1004   -4.1785  -10.1760 C.ar      1 <0>        -0.1124
     28 C21        -2.8400   -3.7604   -8.8760 C.ar      1 <0>         0.0678
     29 O4         -1.7394   -3.7913   -8.0995 O.3       1 <0>        -0.1748
     30 C22        -3.9730   -2.1865   -5.6590 C.3       1 <0>        -0.0989
     31 N4          2.3503   -1.6237   -6.3093 N.pl3     1 <0>        -0.8315
     32 H2          8.1357   -2.4071   -5.0979 H         1 <0>         0.0565
     33 H3          7.5235   -1.9842   -6.7150 H         1 <0>         0.0544
     34 H4          8.6153   -0.8703   -5.8572 H         1 <0>         0.0588
     35 H5          6.8797   -0.5034   -4.1246 H         1 <0>         0.0697
     36 H6          6.2676   -0.0805   -5.7416 H         1 <0>         0.0653
     37 H7          5.1795   -2.3022   -5.9108 H         1 <0>         0.0686
     38 H8          5.7916   -2.7251   -4.2938 H         1 <0>         0.0781
     39 H9          4.5357   -0.8215   -3.3205 H         1 <0>         0.1142
     40 H10         3.9236   -0.3986   -4.9375 H         1 <0>         0.0916
     41 H11         0.1182   -3.5596   -8.0953 H         1 <0>         0.0988
     42 H12         1.7492   -3.8543   -7.4462 H         1 <0>         0.0795
     43 H13         0.9812   -6.0123   -6.4964 H         1 <0>         0.0666
     44 H14        -0.6497   -5.7175   -7.1455 H         1 <0>         0.0685
     45 H15         0.2765   -5.6563   -9.4449 H         1 <0>         0.0633
     46 H16         1.9074   -5.9510   -8.7958 H         1 <0>         0.0604
     47 H17         1.1394   -8.1089   -7.8460 H         1 <0>         0.0537
     48 H18        -0.4915   -7.8142   -8.4951 H         1 <0>         0.0542
     49 H19         0.8781   -8.0564   -9.6059 H         1 <0>         0.0548
     50 H20        -5.9299   -2.5332   -8.1205 H         1 <0>         0.1300
     51 H21        -6.3492   -3.2814  -10.4101 H         1 <0>         0.1322
     52 H22        -4.5551   -4.3292  -11.7246 H         1 <0>         0.1375
     53 H23        -2.3199   -4.6399  -10.7627 H         1 <0>         0.1345
     54 H24        -3.8590   -1.1048   -5.7303 H         1 <0>         0.0773
     55 H25        -5.0326   -2.4417   -5.6721 H         1 <0>         0.0707
     56 H26        -3.5259   -2.5385   -4.7294 H         1 <0>         0.0942
     57 H27         3.0265   -0.9329   -6.3902 H         1 <0>         0.4092
     58 H28         1.7452   -1.7987   -7.0469 H         1 <0>         0.4243
@<TRIPOS>BOND
     1    1    2 1
     2    1   32 1
     3    1   33 1
     4    1   34 1
     5    2    3 1
     6    2   35 1
     7    2   36 1
     8    3    4 1
     9    3   37 1
    10    3   38 1
    11    4    5 1
    12    4   39 1
    13    4   40 1
    14    5   12 am
    15    5    6 1
    16    6    7 2
    17    6   31 1
    18    7    8 1
    19    7   14 1
    20    8    9 2
    21    8   10 am
    22   10   11 1
    23   10   12 am
    24   12   13 2
    25   14   15 1
    26   14   19 am
    27   15   16 1
    28   15   41 1
    29   15   42 1
    30   16   17 1
    31   16   43 1
    32   16   44 1
    33   17   18 1
    34   17   45 1
    35   17   46 1
    36   18   47 1
    37   18   48 1
    38   18   49 1
    39   19   20 2
    40   19   21 1
    41   21   29 1
    42   21   22 2
    43   22   23 1
    44   22   30 1
    45   23   28 ar
    46   23   24 ar
    47   24   25 ar
    48   24   50 1
    49   25   26 ar
    50   25   51 1
    51   26   27 ar
    52   26   52 1
    53   27   28 ar
    54   27   53 1
    55   28   29 1
    56   30   54 1
    57   30   55 1
    58   30   56 1
    59   31   57 1
    60   31   58 1
@<TRIPOS>MOLECULE
ZINC06593893
   34    35     0     0     0
SMALL
USER_CHARGES
2,4-dichloro-N-[(2-propyltetrazol-5-yl)thiocarbamoyl]benzamide
@<TRIPOS>ATOM
      1 C1         -0.0187    1.5258    0.0104 C.3       1 <0>        -0.1498
      2 C2          0.0021   -0.0041    0.0020 C.3       1 <0>        -0.1409
      3 C3          0.7421   -0.5109    1.2415 C.3       1 <0>         0.1333
      4 N1          0.7619   -1.9757    1.2335 N.pl3     1 <0>        -0.1908
      5 N2          1.7459   -2.7943    0.6549 N.2       1 <0>        -0.3210
      6 C4          1.3651   -4.0338    0.8833 C.2       1 <0>         0.4131
      7 N3          0.2174   -3.9822    1.5607 N.2       1 <0>        -0.2417
      8 N4         -0.1177   -2.7571    1.7610 N.2       1 <0>        -0.0014
      9 N5          2.0403   -5.1927    0.4872 N.pl3     1 <0>        -0.5785
     10 C5          1.5338   -6.4044    0.7898 C.2       1 <0>         0.4799
     11 S1          0.0638   -6.5250    1.6591 S.2       1 <0>        -0.3466
     12 N6          2.1844   -7.5213    0.4081 N.am      1 <0>        -0.6328
     13 C6          1.6779   -8.7330    0.7107 C.2       1 <0>         0.5296
     14 O1          0.6343   -8.8186    1.3278 O.2       1 <0>        -0.3762
     15 C7          2.3906   -9.9564    0.2925 C.ar      1 <0>        -0.1282
     16 C8          3.5904   -9.8616   -0.4169 C.ar      1 <0>        -0.0647
     17 C9          4.2511  -11.0073   -0.8046 C.ar      1 <0>        -0.1118
     18 C10         3.7284  -12.2523   -0.4924 C.ar      1 <0>         0.0036
     19 C11         2.5399  -12.3545    0.2099 C.ar      1 <0>        -0.1088
     20 C12         1.8710  -11.2146    0.6097 C.ar      1 <0>         0.0294
     21 Cl1         0.3846  -11.3438    1.4972 Cl        1 <0>        -0.0044
     22 Cl2         4.5676  -13.6900   -0.9848 Cl        1 <0>        -0.0406
     23 H1          1.0039    1.9031    0.0027 H         1 <0>         0.0615
     24 H2         -0.5459    1.8868   -0.8726 H         1 <0>         0.0673
     25 H3         -0.5289    1.8773    0.9072 H         1 <0>         0.0632
     26 H4         -1.0205   -0.3814    0.0098 H         1 <0>         0.0772
     27 H5          0.5123   -0.3556   -0.8948 H         1 <0>         0.0747
     28 H6          1.7647   -0.1336    1.2338 H         1 <0>         0.1128
     29 H7          0.2319   -0.1594    2.1383 H         1 <0>         0.1185
     30 H8          2.8731   -5.1244   -0.0054 H         1 <0>         0.4168
     31 H9          3.0173   -7.4530   -0.0845 H         1 <0>         0.4084
     32 H10         3.9995   -8.8923   -0.6609 H         1 <0>         0.1421
     33 H11         5.1788  -10.9347   -1.3528 H         1 <0>         0.1506
     34 H12         2.1377  -13.3277    0.4499 H         1 <0>         0.1562
@<TRIPOS>BOND
     1    1    2 1
     2    1   23 1
     3    1   24 1
     4    1   25 1
     5    2    3 1
     6    2   26 1
     7    2   27 1
     8    3    4 1
     9    3   28 1
    10    3   29 1
    11    4    8 1
    12    4    5 1
    13    5    6 2
    14    6    7 1
    15    6    9 1
    16    7    8 2
    17    9   10 1
    18    9   30 1
    19   10   11 2
    20   10   12 1
    21   12   13 am
    22   12   31 1
    23   13   14 2
    24   13   15 1
    25   15   20 ar
    26   15   16 ar
    27   16   17 ar
    28   16   32 1
    29   17   18 ar
    30   17   33 1
    31   18   19 ar
    32   18   22 1
    33   19   20 ar
    34   19   34 1
    35   20   21 1
@<TRIPOS>MOLECULE
ZINC39768275
   39    42     0     0     0
SMALL
USER_CHARGES

@<TRIPOS>ATOM
      1 C1         -0.0165    1.3629    0.0095 C.ar      1 <0>        -0.1358
      2 C2          1.1704    2.0816    0.0021 C.ar      1 <0>        -0.0844
      3 C3          2.3868    1.4324   -0.0131 C.ar      1 <0>        -0.1079
      4 C4          2.4295    0.0440   -0.0209 C.ar      1 <0>         0.0663
      5 C5          1.2235   -0.6793   -0.0133 C.ar      1 <0>        -0.1373
      6 C6          0.0021   -0.0041    0.0020 C.ar      1 <0>        -0.0621
      7 C7          1.6096   -2.0921   -0.0246 C.2       1 <0>        -0.1394
      8 C8          2.9637   -2.1112   -0.0377 C.2       1 <0>         0.1040
      9 O1          3.4389   -0.8500   -0.0354 O.3       1 <0>        -0.1738
     10 C9          3.7961   -3.3327   -0.0517 C.2       1 <0>         0.3052
     11 H1          4.4581   -6.3838   -0.0722 H         1 <0>         0.4525
     12 N1          5.1382   -3.3633   -0.0647 N.2       1 <0>        -0.5250
     13 C10         5.5515   -4.6112   -0.0745 C.2       1 <0>         0.2531
     14 N2          4.4635   -5.4139   -0.0678 N.pl3     1 <0>        -0.4509
     15 N3          3.3431   -4.5679   -0.0479 N.2       1 <0>        -0.2694
     16 S1          7.2307   -5.1448   -0.0935 S.3       1 <0>         0.0979
     17 C11         8.1819   -3.6002   -0.0952 C.3       1 <0>        -0.1475
     18 C12         9.6551   -3.9175   -0.1112 C.2       1 <0>         0.5387
     19 O2         10.0266   -5.0720   -0.1206 O.2       1 <0>        -0.5193
     20 N4         10.5596   -2.9184   -0.1152 N.am      1 <0>        -0.7201
     21 C13        11.9917   -3.2269   -0.1307 C.3       1 <0>         0.2053
     22 C14        12.7819   -1.9437   -0.1321 C.2       1 <0>        -0.0470
     23 C15        13.2097   -1.2821    0.9582 C.2       1 <0>        -0.1771
     24 C16        13.9045   -0.1400    0.4979 C.2       1 <0>        -0.2187
     25 C17        13.8598   -0.1721   -0.8461 C.2       1 <0>        -0.0232
     26 O3         13.1836   -1.2698   -1.2222 O.3       1 <0>        -0.1710
     27 H2         -0.9608    1.8866    0.0259 H         1 <0>         0.1329
     28 H3          1.1412    3.1612    0.0078 H         1 <0>         0.1384
     29 H4          3.3043    2.0021   -0.0191 H         1 <0>         0.1353
     30 H5         -0.9244   -0.5591    0.0083 H         1 <0>         0.1316
     31 H6          0.9483   -2.9460   -0.0226 H         1 <0>         0.1690
     32 H7          7.9263   -3.0170   -0.9799 H         1 <0>         0.1318
     33 H8          7.9437   -3.0258    0.8000 H         1 <0>         0.1319
     34 H9         10.2624   -1.9951   -0.1077 H         1 <0>         0.4090
     35 H10        12.2473   -3.8101    0.7540 H         1 <0>         0.1046
     36 H11        12.2299   -3.8013   -1.0259 H         1 <0>         0.0906
     37 H12        13.0521   -1.5681    1.9876 H         1 <0>         0.1522
     38 H13        14.3797    0.6137    1.1082 H         1 <0>         0.1525
     39 H14        14.2970    0.5589   -1.5102 H         1 <0>         0.2069
@<TRIPOS>BOND
     1    1    6 ar
     2    1    2 ar
     3    1   27 1
     4    2    3 ar
     5    2   28 1
     6    3    4 ar
     7    3   29 1
     8    4    9 1
     9    4    5 ar
    10    5    6 ar
    11    5    7 1
    12    6   30 1
    13    7    8 2
    14    7   31 1
    15    8    9 1
    16    8   10 1
    17   10   12 1
    18   10   15 2
    19   11   14 1
    20   12   13 2
    21   13   16 1
    22   13   14 1
    23   14   15 1
    24   16   17 1
    25   17   18 1
    26   17   32 1
    27   17   33 1
    28   18   19 2
    29   18   20 am
    30   20   21 1
    31   20   34 1
    32   21   22 1
    33   21   35 1
    34   21   36 1
    35   22   26 1
    36   22   23 2
    37   23   24 1
    38   23   37 1
    39   24   25 2
    40   24   38 1
    41   25   26 1
    42   25   39 1
@<TRIPOS>MOLECULE
ZINC57695784
   41    42     0     0     0
SMALL
USER_CHARGES

@<TRIPOS>ATOM
      1 C1          0.0096    1.5361   -0.0109 C.3       1 <0>        -0.1410
      2 C2          0.0199    0.0062   -0.0124 C.3       1 <0>        -0.1031
      3 C3         -1.4191   -0.5136   -0.0016 C.3       1 <0>        -0.1529
      4 C4          0.7348   -0.4978   -1.2677 C.3       1 <0>         0.1387
      5 H1          1.7599   -0.1276   -1.2754 H         1 <0>         0.1271
      6 C5          0.7449   -2.0048   -1.2691 C.2       1 <0>         0.5191
      7 O1          0.2168   -2.6140   -2.1753 O.2       1 <0>        -0.5026
      8 N1          1.3410   -2.6756   -0.2635 N.am      1 <0>        -0.6634
      9 C6          1.2700   -4.0734   -0.2155 C.ar      1 <0>         0.1170
     10 C7          1.2748   -4.8111   -1.3914 C.ar      1 <0>        -0.0354
     11 C8          1.2052   -6.1898   -1.3411 C.ar      1 <0>        -0.0411
     12 C9          1.1308   -6.8366   -0.1211 C.ar      1 <0>        -0.0383
     13 C10         1.1253   -6.1064    1.0530 C.ar      1 <0>        -0.1308
     14 C11         1.2005   -4.7260    1.0104 C.ar      1 <0>         0.1304
     15 F1          1.2012   -4.0126    2.1576 F         1 <0>        -0.1152
     16 N2          1.2098   -6.9761   -2.5951 N.pl3     1 <0>         0.0330
     17 O2          1.2744   -6.4117   -3.6623 O.2       1 <0>        -0.1459
     18 O3          1.1489   -8.1828   -2.5522 O.3       1 <0>        -0.1492
     19 N3          0.0316   -0.0131   -2.4580 N.am      1 <0>        -0.7090
     20 C12         0.3053    1.2112   -2.9505 C.2       1 <0>         0.6148
     21 O4          1.1366    1.9141   -2.4065 O.2       1 <0>        -0.5173
     22 C13        -0.3983    1.6962   -4.1415 C.2       1 <0>        -0.2653
     23 C14        -0.2631    2.9067   -4.8041 C.2       1 <0>        -0.0612
     24 C15        -1.0682    3.0780   -5.9046 C.2       1 <0>        -0.1867
     25 C16        -1.9176    2.0829   -6.2612 C.2       1 <0>        -0.2178
     26 S1         -1.6454    0.8805   -5.1199 S.3       1 <0>         0.2135
     27 H2          1.0347    1.9064   -0.0186 H         1 <0>         0.0691
     28 H3         -0.5136    1.8968   -0.8965 H         1 <0>         0.0583
     29 H4         -0.4997    1.8952    0.8834 H         1 <0>         0.0572
     30 H5          0.5431   -0.3545    0.8732 H         1 <0>         0.0863
     31 H6         -1.9423   -0.1529   -0.8872 H         1 <0>         0.0616
     32 H7         -1.4117   -1.6035   -0.0026 H         1 <0>         0.0512
     33 H8         -1.9284   -0.1545    0.8927 H         1 <0>         0.0668
     34 H9          1.8190   -2.1902    0.4269 H         1 <0>         0.4237
     35 H10         1.3325   -4.3074   -2.3450 H         1 <0>         0.1797
     36 H11         1.0766   -7.9146   -0.0853 H         1 <0>         0.1678
     37 H12         1.0664   -6.6145    2.0042 H         1 <0>         0.1680
     38 H13        -0.6310   -0.5733   -2.8916 H         1 <0>         0.4107
     39 H14         0.4307    3.6666   -4.4762 H         1 <0>         0.1509
     40 H15        -1.0254    3.9927   -6.4772 H         1 <0>         0.1406
     41 H16        -2.6076    2.0654   -7.0918 H         1 <0>         0.1909
@<TRIPOS>BOND
     1    1    2 1
     2    1   27 1
     3    1   28 1
     4    1   29 1
     5    2    3 1
     6    2    4 1
     7    2   30 1
     8    3   31 1
     9    3   32 1
    10    3   33 1
    11    4    5 1
    12    4    6 1
    13    4   19 1
    14    6    7 2
    15    6    8 am
    16    8    9 1
    17    8   34 1
    18    9   14 ar
    19    9   10 ar
    20   10   11 ar
    21   10   35 1
    22   11   12 ar
    23   11   16 1
    24   12   13 ar
    25   12   36 1
    26   13   14 ar
    27   13   37 1
    28   14   15 1
    29   16   17 2
    30   16   18 1
    31   19   20 am
    32   19   38 1
    33   20   21 2
    34   20   22 1
    35   22   26 1
    36   22   23 2
    37   23   24 1
    38   23   39 1
    39   24   25 2
    40   24   40 1
    41   25   26 1
    42   25   41 1
@<TRIPOS>MOLECULE
ZINC64891876
   53    54     0     0     0
SMALL
USER_CHARGES

@<TRIPOS>ATOM
      1 C1         -0.0395    1.5024    0.0116 C.3       1 <0>        -0.1164
      2 C2         -0.0136   -0.0043    0.0031 C.ar      1 <0>        -0.0981
      3 C3          0.7482   -0.6867    0.9341 C.ar      1 <0>        -0.0971
      4 C4          0.7741   -2.0673    0.9290 C.ar      1 <0>        -0.1425
      5 C5          0.0338   -2.7708   -0.0127 C.ar      1 <0>         0.1392
      6 C6         -0.7302   -2.0826   -0.9461 C.ar      1 <0>        -0.1161
      7 C7         -0.7561   -0.7016   -0.9320 C.ar      1 <0>        -0.0666
      8 C8         -1.5896    0.0460   -1.9406 C.3       1 <0>        -0.1172
      9 N1          0.0581   -4.1690   -0.0209 N.am      1 <0>        -0.6548
     10 C9         -0.0405   -4.8378   -1.1869 C.2       1 <0>         0.5917
     11 O1         -0.0539   -4.2278   -2.2383 O.2       1 <0>        -0.5016
     12 C10        -0.1323   -6.3134   -1.1871 C.2       1 <0>         0.0179
     13 C11        -0.2300   -7.0142   -2.4136 C.2       1 <0>        -0.0341
     14 C12        -0.3129   -8.3743   -2.3744 C.2       1 <0>        -0.1828
     15 C13        -0.2962   -9.0023   -1.1091 C.2       1 <0>         0.4800
     16 O2         -0.3677  -10.2171   -1.0255 O.2       1 <0>        -0.5114
     17 N2         -0.2004   -8.2510    0.0037 N.am      1 <0>        -0.3334
     18 N3         -0.1176   -6.9708   -0.0493 N.2       1 <0>        -0.1782
     19 C14        -0.1839   -8.9125    1.3108 C.3       1 <0>         0.1244
     20 C15         1.2601   -9.2322    1.7024 C.3       1 <0>        -0.1592
     21 C16         1.2771   -9.9127    3.0469 C.2       1 <0>         0.5260
     22 O3          0.2366  -10.1214    3.6341 O.2       1 <0>        -0.5305
     23 N4          2.4485  -10.2894    3.5968 N.am      1 <0>        -0.7219
     24 C17         2.4649  -10.9509    4.9038 C.3       1 <0>         0.1677
     25 C18         1.6576  -12.2484    4.8290 C.3       1 <0>        -0.1657
     26 C19         3.9090  -11.2707    5.2954 C.3       1 <0>        -0.1569
     27 C20         1.8455  -10.0245    5.9521 C.3       1 <0>        -0.1646
     28 H1         -0.8440    1.8484    0.6606 H         1 <0>         0.0706
     29 H2          0.9137    1.8801    0.3818 H         1 <0>         0.0662
     30 H3         -0.2067    1.8687   -1.0013 H         1 <0>         0.0691
     31 H4          1.3238   -0.1391    1.6657 H         1 <0>         0.1274
     32 H5          1.3695   -2.5995    1.6560 H         1 <0>         0.1262
     33 H6         -1.3069   -2.6266   -1.6795 H         1 <0>         0.1352
     34 H7         -0.9922    0.2436   -2.8307 H         1 <0>         0.0733
     35 H8         -2.4576   -0.5551   -2.2117 H         1 <0>         0.0671
     36 H9         -1.9219    0.9901   -1.5091 H         1 <0>         0.0705
     37 H10         0.1459   -4.6574    0.8125 H         1 <0>         0.4188
     38 H11        -0.2390   -6.4852   -3.3551 H         1 <0>         0.1664
     39 H12        -0.3894   -8.9538   -3.2826 H         1 <0>         0.1732
     40 H13        -0.6252   -8.2525    2.0576 H         1 <0>         0.1144
     41 H14        -0.7591   -9.8368    1.2575 H         1 <0>         0.1207
     42 H15         1.7015   -9.8922    0.9555 H         1 <0>         0.1029
     43 H16         1.8353   -8.3079    1.7557 H         1 <0>         0.1032
     44 H17         3.2806  -10.1225    3.1272 H         1 <0>         0.4007
     45 H18         2.0989  -12.9084    4.0822 H         1 <0>         0.0546
     46 H19         1.6698  -12.7406    5.8015 H         1 <0>         0.0648
     47 H20         0.6288  -12.0206    4.5500 H         1 <0>         0.0787
     48 H21         4.4842  -10.3464    5.3488 H         1 <0>         0.0625
     49 H22         3.9212  -11.7629    6.2679 H         1 <0>         0.0757
     50 H23         4.3503  -11.9307    4.5486 H         1 <0>         0.0626
     51 H24         0.8167   -9.7967    5.6732 H         1 <0>         0.0785
     52 H25         1.8577  -10.5167    6.9246 H         1 <0>         0.0648
     53 H26         2.4207   -9.1002    6.0055 H         1 <0>         0.0542
@<TRIPOS>BOND
     1    1    2 1
     2    1   28 1
     3    1   29 1
     4    1   30 1
     5    2    7 ar
     6    2    3 ar
     7    3    4 ar
     8    3   31 1
     9    4    5 ar
    10    4   32 1
    11    5    6 ar
    12    5    9 1
    13    6    7 ar
    14    6   33 1
    15    7    8 1
    16    8   34 1
    17    8   35 1
    18    8   36 1
    19    9   10 am
    20    9   37 1
    21   10   11 2
    22   10   12 1
    23   12   18 2
    24   12   13 1
    25   13   14 2
    26   13   38 1
    27   14   15 1
    28   14   39 1
    29   15   16 2
    30   15   17 am
    31   17   18 1
    32   17   19 1
    33   19   20 1
    34   19   40 1
    35   19   41 1
    36   20   21 1
    37   20   42 1
    38   20   43 1
    39   21   22 2
    40   21   23 am
    41   23   24 1
    42   23   44 1
    43   24   25 1
    44   24   26 1
    45   24   27 1
    46   25   45 1
    47   25   46 1
    48   25   47 1
    49   26   48 1
    50   26   49 1
    51   26   50 1
    52   27   51 1
    53   27   52 1
    54   27   53 1
@<TRIPOS>MOLECULE
ZINC66856561
   51    53     0     0     0
SMALL
USER_CHARGES

@<TRIPOS>ATOM
      1 C1          0.1391    1.0972    2.6324 C.3       1 <0>        -0.1553
      2 C2          0.1016   -0.2763    1.9594 C.3       1 <0>        -0.1060
      3 C3         -1.3307   -0.8140    1.9772 C.3       1 <0>        -0.1091
      4 H1         -1.7032   -0.8216    3.0015 H         1 <0>         0.1002
      5 C4         -2.2229    0.0829    1.1167 C.3       1 <0>        -0.1478
      6 C5         -1.3476   -2.2165    1.4261 C.2       1 <0>         0.5214
      7 O1         -0.3157   -2.7350    1.0556 O.2       1 <0>        -0.5362
      8 N1         -2.5094   -2.8947    1.3450 N.am      1 <0>        -0.7223
      9 C6         -2.5259   -4.2582    0.8093 C.3       1 <0>         0.1010
     10 C7         -3.9366   -4.7878    0.8268 C.2       1 <0>         0.5123
     11 O2         -4.8395   -4.0946    1.2456 O.2       1 <0>        -0.5142
     12 N2         -4.1951   -6.0318    0.3771 N.am      1 <0>        -0.6678
     13 C8         -5.4855   -6.5585    0.4813 C.ar      1 <0>         0.1551
     14 C9         -6.5887   -5.7280    0.3204 C.ar      1 <0>        -0.1153
     15 C10        -7.8622   -6.2443    0.4225 C.ar      1 <0>        -0.0938
     16 C11        -8.0439   -7.6028    0.6877 C.ar      1 <0>        -0.0283
     17 C12        -6.9341   -8.4340    0.8488 C.ar      1 <0>        -0.0540
     18 C13        -5.6631   -7.9128    0.7399 C.ar      1 <0>        -0.1368
     19 C14        -9.4091   -8.1599    0.7984 C.2       1 <0>         0.2212
     20 N3         -9.7471   -9.3110    1.3445 N.2       1 <0>        -0.2815
     21 N4        -11.0230   -9.4735    1.2655 N.2       1 <0>        -0.2868
     22 C15       -11.5631   -8.4507    0.6741 C.2       1 <0>         0.1844
     23 N5        -10.5599   -7.5811    0.3616 N.pl3     1 <0>        -0.4710
     24 C16       -10.7466   -6.2981   -0.3141 C.3       1 <0>         0.0980
     25 C17       -12.1314   -6.2863   -0.9724 C.3       1 <0>        -0.1375
     26 C18       -13.1902   -6.7088    0.0500 C.3       1 <0>        -0.1275
     27 C19       -13.0185   -8.2030    0.3656 C.3       1 <0>        -0.0353
     28 H2          1.1595    1.4803    2.6197 H         1 <0>         0.0588
     29 H3         -0.5135    1.7839    2.0933 H         1 <0>         0.0578
     30 H4         -0.2019    1.0060    3.6636 H         1 <0>         0.0550
     31 H5          0.4426   -0.1850    0.9281 H         1 <0>         0.0694
     32 H6          0.7542   -0.9630    2.4985 H         1 <0>         0.0711
     33 H7         -1.8504    0.0905    0.0923 H         1 <0>         0.0617
     34 H8         -3.2433   -0.3002    1.1293 H         1 <0>         0.0602
     35 H9         -2.2107    1.0973    1.5152 H         1 <0>         0.0735
     36 H10        -3.3348   -2.4801    1.6413 H         1 <0>         0.4129
     37 H11        -2.1534   -4.2506   -0.2151 H         1 <0>         0.1047
     38 H12        -1.8903   -4.8971    1.4223 H         1 <0>         0.1054
     39 H13        -3.4855   -6.5615   -0.0188 H         1 <0>         0.4179
     40 H14        -6.4475   -4.6771    0.1156 H         1 <0>         0.1453
     41 H15        -8.7189   -5.5986    0.2978 H         1 <0>         0.1288
     42 H16        -7.0714   -9.4853    1.0544 H         1 <0>         0.1433
     43 H17        -4.8040   -8.5563    0.8596 H         1 <0>         0.1373
     44 H18       -10.6805   -5.4888    0.4131 H         1 <0>         0.0929
     45 H19        -9.9782   -6.1713   -1.0767 H         1 <0>         0.0992
     46 H20       -12.3541   -5.2814   -1.3313 H         1 <0>         0.0958
     47 H21       -12.1400   -6.9813   -1.8121 H         1 <0>         0.0791
     48 H22       -13.0696   -6.1232    0.9615 H         1 <0>         0.0733
     49 H23       -14.1840   -6.5378   -0.3637 H         1 <0>         0.0890
     50 H24       -13.3215   -8.8069   -0.4897 H         1 <0>         0.0984
     51 H25       -13.6274   -8.4598    1.2324 H         1 <0>         0.1023
@<TRIPOS>BOND
     1    1    2 1
     2    1   28 1
     3    1   29 1
     4    1   30 1
     5    2    3 1
     6    2   31 1
     7    2   32 1
     8    3    4 1
     9    3    5 1
    10    3    6 1
    11    5   33 1
    12    5   34 1
    13    5   35 1
    14    6    7 2
    15    6    8 am
    16    8    9 1
    17    8   36 1
    18    9   10 1
    19    9   37 1
    20    9   38 1
    21   10   11 2
    22   10   12 am
    23   12   13 1
    24   12   39 1
    25   13   18 ar
    26   13   14 ar
    27   14   15 ar
    28   14   40 1
    29   15   16 ar
    30   15   41 1
    31   16   17 ar
    32   16   19 1
    33   17   18 ar
    34   17   42 1
    35   18   43 1
    36   19   23 1
    37   19   20 2
    38   20   21 1
    39   21   22 2
    40   22   27 1
    41   22   23 1
    42   23   24 1
    43   24   25 1
    44   24   44 1
    45   24   45 1
    46   25   26 1
    47   25   46 1
    48   25   47 1
    49   26   27 1
    50   26   48 1
    51   26   49 1
    52   27   50 1
    53   27   51 1
@<TRIPOS>MOLECULE
ZINC13801116
   68    71     0     0     0
SMALL
USER_CHARGES
amino-bis(butylsulfanyl)-phenyl-BLAHdicarbonitrile
@<TRIPOS>ATOM
      1 C1         -0.2879    1.3231    2.5439 C.3       1 <0>        -0.1580
      2 C2         -0.9998    1.7201    1.2490 C.3       1 <0>        -0.1165
      3 C3         -0.1867    1.2300    0.0492 C.3       1 <0>        -0.1057
      4 C4         -0.8985    1.6270   -1.2457 C.3       1 <0>        -0.1111
      5 S1          0.0655    1.0460   -2.6682 S.3       1 <0>        -0.1128
      6 C5         -0.9705    1.4595   -4.0987 C.3       1 <0>         0.1416
      7 C6         -0.3493    0.9326   -5.3952 C.3       1 <0>         0.1403
      8 C7          0.4467   -0.3278   -5.3474 C.2       1 <0>        -0.0164
      9 C8          1.5729   -0.4310   -6.0607 C.2       1 <0>        -0.0709
     10 C9          2.1810   -1.7985   -5.8811 C.3       1 <0>        -0.0841
     11 C10         1.0541   -2.6663   -5.2752 C.3       1 <0>        -0.1117
     12 C11         0.1683   -1.5971   -4.5935 C.3       1 <0>        -0.0981
     13 C12         1.3635    1.8939   -6.9092 C.3       1 <0>         0.1328
     14 H1          2.0597    2.7112   -7.0976 H         1 <0>         0.1884
     15 C13         0.7203    2.0612   -5.5612 C.3       1 <0>         0.0373
     16 C14        -0.0412    3.2767   -5.1824 C.cat     1 <0>         0.5630
     17 N1          0.1989    4.5469   -5.6363 N.pl3     1 <0>        -0.7308
     18 C15         1.7460    1.8264   -4.5319 C.1       1 <0>         0.1153
     19 N2          2.5377    1.6451   -3.7375 N.1       1 <0>        -0.2198
     20 C16         0.3100    1.8511   -7.9860 C.ar      1 <0>        -0.1796
     21 C17         0.1056    0.6896   -8.7071 C.ar      1 <0>        -0.1197
     22 C18        -0.8641    0.6489   -9.6915 C.ar      1 <0>        -0.0730
     23 C19        -1.6222    1.7727   -9.9619 C.ar      1 <0>        -0.0507
     24 C20        -1.4142    2.9358   -9.2442 C.ar      1 <0>        -0.0838
     25 C21        -0.4482    2.9750   -8.2563 C.ar      1 <0>        -0.1081
     26 C22        -1.3236    0.9313   -6.4986 C.1       1 <0>         0.1674
     27 N3         -2.0756    0.9304   -7.3501 N.1       1 <0>        -0.2764
     28 S2         -2.6551    0.8227   -3.8811 S.3       1 <0>        -0.0953
     29 C23        -3.6129    2.2784   -3.3771 C.3       1 <0>        -0.1197
     30 C24        -5.0930    1.9048   -3.2752 C.3       1 <0>        -0.1077
     31 C25        -5.9009    3.1326   -2.8500 C.3       1 <0>        -0.1160
     32 C26        -7.3810    2.7590   -2.7481 C.3       1 <0>        -0.1591
     33 H2         -0.8671    1.6722    3.3987 H         1 <0>         0.0660
     34 H3         -0.1926    0.2382    2.5882 H         1 <0>         0.0604
     35 H4          0.7032    1.7761    2.5672 H         1 <0>         0.0576
     36 H5         -1.0950    2.8050    1.2047 H         1 <0>         0.0654
     37 H6         -1.9909    1.2670    1.2257 H         1 <0>         0.0704
     38 H7         -0.0914    0.1451    0.0935 H         1 <0>         0.0845
     39 H8          0.8045    1.6831    0.0725 H         1 <0>         0.0764
     40 H9         -1.8897    1.1740   -1.2690 H         1 <0>         0.1137
     41 H10        -0.9938    2.7119   -1.2900 H         1 <0>         0.0907
     42 H11         2.4935   -2.2029   -6.8439 H         1 <0>         0.1095
     43 H12         3.0299   -1.7484   -5.1992 H         1 <0>         0.1165
     44 H13         0.5025   -3.1905   -6.0556 H         1 <0>         0.0980
     45 H14         1.4529   -3.3684   -4.5430 H         1 <0>         0.1128
     46 H15        -0.8845   -1.8661   -4.6794 H         1 <0>         0.1133
     47 H16         0.4463   -1.4864   -3.5454 H         1 <0>         0.1291
     48 H17        -0.3540    5.2834   -5.3317 H         1 <0>         0.4510
     49 H18         0.9219    4.7097   -6.2622 H         1 <0>         0.4532
     50 H19         0.7010   -0.1871   -8.4990 H         1 <0>         0.1243
     51 H20        -1.0263   -0.2597  -10.2525 H         1 <0>         0.1478
     52 H21        -2.3767    1.7422  -10.7340 H         1 <0>         0.1479
     53 H22        -2.0063    3.8139   -9.4557 H         1 <0>         0.1458
     54 H23        -0.2854    3.8837   -7.6959 H         1 <0>         0.1207
     55 H24        -3.2589    2.6283   -2.4073 H         1 <0>         0.1024
     56 H25        -3.4879    3.0694   -4.1165 H         1 <0>         0.0879
     57 H26        -5.4470    1.5549   -4.2449 H         1 <0>         0.0832
     58 H27        -5.2180    1.1138   -2.5358 H         1 <0>         0.0866
     59 H28        -5.5469    3.4825   -1.8803 H         1 <0>         0.0691
     60 H29        -5.7759    3.9236   -3.5895 H         1 <0>         0.0651
     61 H30        -7.9566    3.6337   -2.4452 H         1 <0>         0.0665
     62 H31        -7.7350    2.4091   -3.7179 H         1 <0>         0.0593
     63 H32        -7.5060    1.9680   -2.0087 H         1 <0>         0.0613
     64 N4          2.1492    0.5912   -6.8847 N.4       1 <0>        -0.4626
     65 H33         2.2091    0.2324   -7.8449 H         1 <0>         0.4565
     66 H34         3.0935    0.7904   -6.5343 H         1 <0>         0.4506
     67 N5         -0.9905    2.9354   -4.3351 N.pl3     1 <0>        -0.6110
     68 H35        -1.6504    3.5901   -3.8991 H         1 <0>         0.4692
@<TRIPOS>BOND
     1    1    2 1
     2    1   33 1
     3    1   34 1
     4    1   35 1
     5    2    3 1
     6    2   36 1
     7    2   37 1
     8    3    4 1
     9    3   38 1
    10    3   39 1
    11    4    5 1
    12    4   40 1
    13    4   41 1
    14    5    6 1
    15    6    7 1
    16    6   28 1
    17    6   67 1
    18    7   15 1
    19    7    8 1
    20    7   26 1
    21    8   12 1
    22    8    9 2
    23    9   10 1
    24    9   64 1
    25   10   11 1
    26   10   42 1
    27   10   43 1
    28   11   12 1
    29   11   44 1
    30   11   45 1
    31   12   46 1
    32   12   47 1
    33   13   14 1
    34   13   15 1
    35   13   20 1
    36   13   64 1
    37   15   16 1
    38   15   18 1
    39   16   17 1
    40   16   67 2
    41   17   48 1
    42   17   49 1
    43   18   19 3
    44   20   25 ar
    45   20   21 ar
    46   21   22 ar
    47   21   50 1
    48   22   23 ar
    49   22   51 1
    50   23   24 ar
    51   23   52 1
    52   24   25 ar
    53   24   53 1
    54   25   54 1
    55   26   27 3
    56   28   29 1
    57   29   30 1
    58   29   55 1
    59   29   56 1
    60   30   31 1
    61   30   57 1
    62   30   58 1
    63   31   32 1
    64   31   59 1
    65   31   60 1
    66   32   61 1
    67   32   62 1
    68   32   63 1
    69   64   65 1
    70   64   66 1
    71   67   68 1
@<TRIPOS>MOLECULE
ZINC39628569
   79    81     0     0     0
SMALL
USER_CHARGES

@<TRIPOS>ATOM
      1 C1          0.1801    1.2639    0.3816 C.3       1 <0>        -0.1554
      2 C2          0.1572   -0.2615    0.2661 C.3       1 <0>        -0.1260
      3 C3         -1.2925   -0.7508    0.2606 C.3       1 <0>        -0.1208
      4 C4         -1.3155   -2.2762    0.1451 C.3       1 <0>        -0.1035
      5 C5         -2.7651   -2.7655    0.1396 C.3       1 <0>        -0.1042
      6 H1         -3.3158   -2.2611   -0.6544 H         1 <0>         0.0977
      7 C6         -3.4143   -2.4519    1.4891 C.3       1 <0>        -0.1546
      8 C7         -2.7922   -4.2535   -0.0972 C.2       1 <0>         0.5442
      9 O1         -1.7542   -4.8627   -0.2469 O.2       1 <0>        -0.5212
     10 N1         -3.9699   -4.9073   -0.1427 N.am      1 <0>        -0.6250
     11 C8         -5.3303   -4.3398    0.0098 C.3       1 <0>         0.1098
     12 C9         -6.1885   -5.0992   -1.0267 C.3       1 <0>        -0.1144
     13 H2         -6.2546   -4.5306   -1.9543 H         1 <0>         0.1126
     14 C10        -5.4407   -6.4223   -1.2616 C.3       1 <0>        -0.0723
     15 C11        -4.1972   -6.3557   -0.3631 C.3       1 <0>         0.1045
     16 C12        -5.0217   -6.5400   -2.7238 C.3       1 <0>        -0.1323
     17 C13        -4.3305   -7.8885   -2.9448 C.3       1 <0>        -0.0131
     18 N2         -5.2504   -8.9758   -2.5894 N.4       1 <0>        -0.5039
     19 C14        -5.5755   -8.9096   -1.1595 C.3       1 <0>        -0.0093
     20 C15        -6.3190   -7.6042   -0.8629 C.3       1 <0>        -0.1434
     21 C16        -7.5659   -5.3631   -0.4750 C.2       1 <0>         0.5244
     22 O2         -7.7218   -5.5199    0.7175 O.2       1 <0>        -0.5095
     23 N3         -8.6245   -5.4249   -1.3069 N.am      1 <0>        -0.7345
     24 C17        -9.9635   -5.6815   -0.7707 C.3       1 <0>         0.1203
     25 C18       -10.9767   -5.7013   -1.9169 C.3       1 <0>        -0.1615
     26 C19       -12.3751   -5.9692   -1.3568 C.3       1 <0>        -0.0141
     27 N4        -13.3480   -5.9883   -2.4574 N.4       1 <0>        -0.3804
     28 C20       -13.0545   -7.1172   -3.3484 C.3       1 <0>        -0.0093
     29 C21       -14.0143   -7.0944   -4.5399 C.3       1 <0>        -0.1463
     30 C22       -15.4543   -7.2049   -4.0307 C.3       1 <0>        -0.1404
     31 C23       -15.7257   -6.0648   -3.0449 C.3       1 <0>        -0.1421
     32 C24       -14.7025   -6.1258   -1.9088 C.3       1 <0>         0.0277
     33 H3        -14.7897   -7.0820   -1.3928 H         1 <0>         0.1367
     34 C25       -14.9698   -4.9885   -0.9209 C.3       1 <0>        -0.1870
     35 H4          1.2129    1.6125    0.3855 H         1 <0>         0.0574
     36 H5         -0.3475    1.7005   -0.4664 H         1 <0>         0.0534
     37 H6         -0.3086    1.5656    1.3080 H         1 <0>         0.0545
     38 H7          0.6459   -0.5631   -0.6603 H         1 <0>         0.0620
     39 H8          0.6848   -0.6981    1.1141 H         1 <0>         0.0633
     40 H9         -1.7813   -0.4492    1.1870 H         1 <0>         0.0663
     41 H10        -1.8201   -0.3142   -0.5874 H         1 <0>         0.0615
     42 H11        -0.8267   -2.5778   -0.7813 H         1 <0>         0.0716
     43 H12        -0.7879   -2.7128    0.9931 H         1 <0>         0.0721
     44 H13        -2.8636   -2.9563    2.2831 H         1 <0>         0.0650
     45 H14        -3.3947   -1.3757    1.6604 H         1 <0>         0.0783
     46 H15        -4.4471   -2.8005    1.4852 H         1 <0>         0.0594
     47 H16        -5.7056   -4.5179    1.0176 H         1 <0>         0.1000
     48 H17        -5.3238   -3.2724   -0.2110 H         1 <0>         0.0972
     49 H18        -3.3404   -6.8029   -0.8670 H         1 <0>         0.0905
     50 H19        -4.3880   -6.8594    0.5845 H         1 <0>         0.0839
     51 H20        -5.9033   -6.4742   -3.3614 H         1 <0>         0.0931
     52 H21        -4.3321   -5.7329   -2.9709 H         1 <0>         0.1195
     53 H22        -4.0446   -7.9826   -3.9925 H         1 <0>         0.1420
     54 H23        -3.4400   -7.9470   -2.3190 H         1 <0>         0.1366
     55 H24        -6.0978   -8.8879   -3.1300 H         1 <0>         0.4244
     56 H25        -6.2073   -9.7564   -0.8912 H         1 <0>         0.1394
     57 H26        -4.6554   -8.9441   -0.5760 H         1 <0>         0.1360
     58 H27        -6.5440   -7.5475    0.2021 H         1 <0>         0.1258
     59 H28        -7.2473   -7.5765   -1.4335 H         1 <0>         0.0908
     60 H29        -8.4999   -5.2995   -2.2606 H         1 <0>         0.4031
     61 H30        -9.9724   -6.6450   -0.2612 H         1 <0>         0.0811
     62 H31       -10.2290   -4.8947   -0.0646 H         1 <0>         0.0843
     63 H32       -10.9679   -4.7377   -2.4264 H         1 <0>         0.0965
     64 H33       -10.7112   -6.4881   -2.6230 H         1 <0>         0.0920
     65 H34       -12.3840   -6.9328   -0.8474 H         1 <0>         0.1336
     66 H35       -12.6406   -5.1824   -0.6508 H         1 <0>         0.1407
     67 H36       -12.0283   -7.0389   -3.7075 H         1 <0>         0.1263
     68 H37       -13.1768   -8.0523   -2.8018 H         1 <0>         0.1282
     69 H38       -13.8926   -6.1597   -5.0875 H         1 <0>         0.0881
     70 H39       -13.7959   -7.9343   -5.1994 H         1 <0>         0.1124
     71 H40       -16.1447   -7.1323   -4.8710 H         1 <0>         0.0975
     72 H41       -15.5904   -8.1621   -3.5273 H         1 <0>         0.0825
     73 H42       -15.6395   -5.1088   -3.5614 H         1 <0>         0.0891
     74 H43       -16.7306   -6.1689   -2.6357 H         1 <0>         0.1148
     75 H44       -14.8815   -4.0318   -1.4357 H         1 <0>         0.0823
     76 H45       -15.9756   -5.0902   -0.5133 H         1 <0>         0.1093
     77 H46       -14.2428   -5.0332   -0.1100 H         1 <0>         0.0824
     78 H47       -13.2828   -5.1261   -2.9775 H         1 <0>         0.4213
     79 H48        -4.8151   -9.8630   -2.7932 H         1 <0>         0.4370
@<TRIPOS>BOND
     1    1    2 1
     2    1   35 1
     3    1   36 1
     4    1   37 1
     5    2    3 1
     6    2   38 1
     7    2   39 1
     8    3    4 1
     9    3   40 1
    10    3   41 1
    11    4    5 1
    12    4   42 1
    13    4   43 1
    14    5    6 1
    15    5    7 1
    16    5    8 1
    17    7   44 1
    18    7   45 1
    19    7   46 1
    20    8    9 2
    21    8   10 am
    22   10   15 1
    23   10   11 1
    24   11   12 1
    25   11   47 1
    26   11   48 1
    27   12   13 1
    28   12   14 1
    29   12   21 1
    30   14   20 1
    31   14   15 1
    32   14   16 1
    33   15   49 1
    34   15   50 1
    35   16   17 1
    36   16   51 1
    37   16   52 1
    38   17   18 1
    39   17   53 1
    40   17   54 1
    41   18   19 1
    42   18   55 1
    43   18   79 1
    44   19   20 1
    45   19   56 1
    46   19   57 1
    47   20   58 1
    48   20   59 1
    49   21   22 2
    50   21   23 am
    51   23   24 1
    52   23   60 1
    53   24   25 1
    54   24   61 1
    55   24   62 1
    56   25   26 1
    57   25   63 1
    58   25   64 1
    59   26   27 1
    60   26   65 1
    61   26   66 1
    62   27   32 1
    63   27   28 1
    64   27   78 1
    65   28   29 1
    66   28   67 1
    67   28   68 1
    68   29   30 1
    69   29   69 1
    70   29   70 1
    71   30   31 1
    72   30   71 1
    73   30   72 1
    74   31   32 1
    75   31   73 1
    76   31   74 1
    77   32   33 1
    78   32   34 1
    79   34   75 1
    80   34   76 1
    81   34   77 1
@<TRIPOS>MOLECULE
ZINC49071413
   76    80     0     0     0
SMALL
USER_CHARGES

@<TRIPOS>ATOM
      1 C1         -1.1154   -1.6626    0.0242 C.ar      1 <0>        -0.0792
      2 C2         -0.1635   -0.7266   -0.3342 C.ar      1 <0>        -0.1132
      3 C3          1.1764   -1.0664   -0.3286 C.ar      1 <0>        -0.0931
      4 C4          1.5644   -2.3421    0.0358 C.ar      1 <0>        -0.1707
      5 C5          0.6125   -3.2779    0.3951 C.ar      1 <0>        -0.0922
      6 C6         -0.7275   -2.9385    0.3882 C.ar      1 <0>        -0.1130
      7 C7          3.0251   -2.7129    0.0410 C.3       1 <0>         0.0513
      8 N1          3.5984   -2.4262    1.3628 N.4       1 <0>        -0.5071
      9 C8          5.0222   -2.7876    1.3678 C.3       1 <0>        -0.0198
     10 C9          5.6193   -2.4890    2.7445 C.3       1 <0>         0.0180
     11 N2          7.0432   -2.8505    2.7495 N.3       1 <0>        -0.4995
     12 C10         7.5831   -2.8442    4.1157 C.3       1 <0>         0.0843
     13 C11         8.8991   -3.5781    4.1392 C.ar      1 <0>        -0.0433
     14 C12         8.9208   -4.9543    4.2676 C.ar      1 <0>        -0.0848
     15 C13        10.1279   -5.6275    4.2891 C.ar      1 <0>        -0.0880
     16 C14        11.3134   -4.9245    4.1817 C.ar      1 <0>        -0.1589
     17 C15        11.2916   -3.5484    4.0524 C.ar      1 <0>        -0.0897
     18 C16        10.0843   -2.8756    4.0266 C.ar      1 <0>        -0.1127
     19 C17        12.6294   -5.6584    4.2061 C.3       1 <0>         0.0433
     20 N3         13.0097   -6.0275    2.8361 N.4       1 <0>        -0.5054
     21 C18        14.2926   -6.7428    2.8599 C.3       1 <0>         0.0575
     22 C19        14.6827   -7.1216    1.4544 C.ar      1 <0>         0.0449
     23 C20        15.5333   -6.3014    0.7371 C.ar      1 <0>        -0.1423
     24 C21        15.8860   -6.6589   -0.5551 C.ar      1 <0>        -0.0681
     25 C22        15.3676   -7.8332   -1.0797 C.ar      1 <0>        -0.1328
     26 C23        14.5228   -8.6026   -0.3028 C.ar      1 <0>         0.1106
     27 N4         14.2131   -8.2341    0.9251 N.ar      1 <0>        -0.4664
     28 C24         7.8157   -1.9590    1.8741 C.3       1 <0>         0.1284
     29 H1          8.8729   -2.0323    2.1292 H         1 <0>         0.1089
     30 C25         7.3466   -0.5203    2.0801 C.3       1 <0>        -0.1591
     31 C26         8.0064    0.3625    1.0142 C.3       1 <0>        -0.1194
     32 C27         7.3945    0.0169   -0.3423 C.3       1 <0>        -0.0853
     33 C28         7.4318   -1.4695   -0.5752 C.ar      1 <0>        -0.1293
     34 C29         7.6202   -2.3791    0.4398 C.ar      1 <0>         0.1195
     35 N5          7.6370   -3.6786    0.1729 N.ar      1 <0>        -0.4559
     36 C30         7.4812   -4.1500   -1.0452 C.ar      1 <0>         0.0946
     37 C31         7.2908   -3.2930   -2.1125 C.ar      1 <0>        -0.1612
     38 C32         7.2658   -1.9304   -1.8776 C.ar      1 <0>        -0.0782
     39 H2         -2.1619   -1.3958    0.0241 H         1 <0>         0.1380
     40 H3         -0.4666    0.2701   -0.6190 H         1 <0>         0.1374
     41 H4          1.9201   -0.3353   -0.6093 H         1 <0>         0.1297
     42 H5          0.9156   -4.2747    0.6796 H         1 <0>         0.1312
     43 H6         -1.4712   -3.6697    0.6685 H         1 <0>         0.1378
     44 H7          3.1311   -3.7753   -0.1783 H         1 <0>         0.1372
     45 H8          3.5503   -2.1313   -0.7167 H         1 <0>         0.1332
     46 H9          3.5003   -1.4427    1.5658 H         1 <0>         0.4254
     47 H10         5.1282   -3.8501    1.1485 H         1 <0>         0.1421
     48 H11         5.5474   -2.2061    0.6101 H         1 <0>         0.1309
     49 H12         5.5134   -1.4266    2.9638 H         1 <0>         0.0725
     50 H13         5.0942   -3.0706    3.5022 H         1 <0>         0.1023
     51 H14         7.7351   -1.8152    4.4416 H         1 <0>         0.0617
     52 H15         6.8799   -3.3376    4.7866 H         1 <0>         0.0988
     53 H16         7.9946   -5.5035    4.3515 H         1 <0>         0.1350
     54 H17        10.1449   -6.7026    4.3901 H         1 <0>         0.1340
     55 H18        12.2178   -2.9992    3.9688 H         1 <0>         0.1327
     56 H19        10.0672   -1.8009    3.9218 H         1 <0>         0.1305
     57 H20        13.3968   -5.0140    4.6351 H         1 <0>         0.1409
     58 H21        12.5317   -6.5596    4.8114 H         1 <0>         0.1420
     59 H22        12.2994   -6.6240    2.4390 H         1 <0>         0.4307
     60 H23        15.0600   -6.0985    3.2889 H         1 <0>         0.1470
     61 H24        14.1949   -7.6441    3.4652 H         1 <0>         0.1487
     62 H25        15.9179   -5.3934    1.1775 H         1 <0>         0.1448
     63 H26        16.5484   -6.0374   -1.1393 H         1 <0>         0.1504
     64 H27        15.6208   -8.1424   -2.0831 H         1 <0>         0.1521
     65 H28        14.1149   -9.5186   -0.7040 H         1 <0>         0.1724
     66 H29         6.2626   -0.4702    1.9776 H         1 <0>         0.0709
     67 H30         7.6400   -0.1778    3.0724 H         1 <0>         0.0825
     68 H31         7.8238    1.4126    1.2426 H         1 <0>         0.0827
     69 H32         9.0794    0.1720    0.9923 H         1 <0>         0.0725
     70 H33         6.3599    0.3590   -0.3678 H         1 <0>         0.0787
     71 H34         7.9579    0.5184   -1.1292 H         1 <0>         0.0877
     72 H35         7.5027   -5.2167   -1.2128 H         1 <0>         0.1594
     73 H36         7.1647   -3.6807   -3.1126 H         1 <0>         0.1411
     74 H37         7.1185   -1.2359   -2.6914 H         1 <0>         0.1398
     75 H38         3.1123   -2.9645    2.0642 H         1 <0>         0.4282
     76 H39        13.1002   -5.1933    2.2758 H         1 <0>         0.4246
@<TRIPOS>BOND
     1    1    6 ar
     2    1    2 ar
     3    1   39 1
     4    2    3 ar
     5    2   40 1
     6    3    4 ar
     7    3   41 1
     8    4    5 ar
     9    4    7 1
    10    5    6 ar
    11    5   42 1
    12    6   43 1
    13    7    8 1
    14    7   44 1
    15    7   45 1
    16    8    9 1
    17    8   46 1
    18    8   75 1
    19    9   10 1
    20    9   47 1
    21    9   48 1
    22   10   11 1
    23   10   49 1
    24   10   50 1
    25   11   12 1
    26   11   28 1
    27   12   13 1
    28   12   51 1
    29   12   52 1
    30   13   18 ar
    31   13   14 ar
    32   14   15 ar
    33   14   53 1
    34   15   16 ar
    35   15   54 1
    36   16   17 ar
    37   16   19 1
    38   17   18 ar
    39   17   55 1
    40   18   56 1
    41   19   20 1
    42   19   57 1
    43   19   58 1
    44   20   21 1
    45   20   59 1
    46   20   76 1
    47   21   22 1
    48   21   60 1
    49   21   61 1
    50   22   27 ar
    51   22   23 ar
    52   23   24 ar
    53   23   62 1
    54   24   25 ar
    55   24   63 1
    56   25   26 ar
    57   25   64 1
    58   26   27 ar
    59   26   65 1
    60   28   29 1
    61   28   34 1
    62   28   30 1
    63   30   31 1
    64   30   66 1
    65   30   67 1
    66   31   32 1
    67   31   68 1
    68   31   69 1
    69   32   33 1
    70   32   70 1
    71   32   71 1
    72   33   38 ar
    73   33   34 ar
    74   34   35 ar
    75   35   36 ar
    76   36   37 ar
    77   36   72 1
    78   37   38 ar
    79   37   73 1
    80   38   74 1
@<TRIPOS>MOLECULE
ZINC63626018
   57    60     0     0     0
SMALL
USER_CHARGES

@<TRIPOS>ATOM
      1 C1          0.0257    1.5519    0.0587 C.3       1 <0>        -0.1654
      2 C2          0.0410    0.0221    0.0417 C.3       1 <0>         0.0253
      3 O1          0.7269   -0.4604    1.1988 O.3       1 <0>        -0.2380
      4 C3          0.8302   -1.8055    1.3370 C.ar      1 <0>         0.3061
      5 C4          0.2527   -2.6691    0.3152 C.ar      1 <0>        -0.0565
      6 C5          0.3221   -4.0110    0.3959 C.ar      1 <0>        -0.0861
      7 C6          0.9968   -4.6401    1.5412 C.ar      1 <0>         0.3282
      8 N1          1.2021   -5.8855    1.8606 N.pl3     1 <0>        -0.4508
      9 C7          1.9380   -5.9011    3.1304 C.3       1 <0>         0.2244
     10 H1          2.9020   -6.3924    2.9981 H         1 <0>         0.2606
     11 N2          2.1361   -4.4974    3.5118 N.pl3     1 <0>        -0.5140
     12 C8          1.5873   -3.7596    2.5852 C.ar      1 <0>         0.3128
     13 C9          1.4724   -2.3093    2.4191 C.ar      1 <0>        -0.2325
     14 S1          0.9702   -6.7620    4.4004 S.3       1 <0>         0.0922
     15 C10        -0.5778   -5.8202    4.4860 C.3       1 <0>        -0.1028
     16 H2         -0.3544   -4.7705    4.6765 H         1 <0>         0.1349
     17 C11        -1.3161   -5.9474    3.1784 C.ar      1 <0>        -0.1488
     18 C12        -1.7126   -7.1923    2.7268 C.ar      1 <0>        -0.0868
     19 C13        -2.3899   -7.3089    1.5274 C.ar      1 <0>        -0.0916
     20 C14        -2.6711   -6.1806    0.7798 C.ar      1 <0>        -0.0855
     21 C15        -2.2754   -4.9357    1.2319 C.ar      1 <0>        -0.1122
     22 C16        -1.6019   -4.8186    2.4334 C.ar      1 <0>        -0.1490
     23 C17        -1.4343   -6.3619    5.6013 C.2       1 <0>         0.5415
     24 O2         -1.2369   -7.4793    6.0296 O.2       1 <0>        -0.4794
     25 N3         -2.4198   -5.6047    6.1228 N.am      1 <0>        -0.6499
     26 C18        -3.2768   -6.1411    7.0902 C.ar      1 <0>         0.1777
     27 C19        -4.6150   -5.7707    7.1165 C.ar      1 <0>        -0.1540
     28 C20        -5.4583   -6.3018    8.0727 C.ar      1 <0>         0.0021
     29 C21        -4.9714   -7.2015    9.0032 C.ar      1 <0>        -0.6774
     30 C22        -3.6393   -7.5720    8.9799 C.ar      1 <0>         0.0067
     31 C23        -2.7923   -7.0492    8.0225 C.ar      1 <0>        -0.1384
     32 S2         -6.0506   -7.8768   10.2214 S.o2      1 <0>         2.6998
     33 O3         -5.2323   -8.2759   11.3124 O.2       1 <0>        -0.9537
     34 O4         -7.1223   -6.9557   10.3700 O.2       1 <0>        -0.9515
     35 N4         -6.7008   -9.2610    9.5862 N.pl3     1 <0>        -1.2458
     36 H3          1.0497    1.9255    0.0563 H         1 <0>         0.0818
     37 H4         -0.4974    1.9199   -0.8239 H         1 <0>         0.1060
     38 H5         -0.4860    1.9001    0.9560 H         1 <0>         0.0811
     39 H6         -0.9829   -0.3516    0.0441 H         1 <0>         0.0981
     40 H7          0.5528   -0.3262   -0.8556 H         1 <0>         0.0991
     41 H8         -0.2455   -2.2196   -0.5311 H         1 <0>         0.2083
     42 H9         -0.1166   -4.6237   -0.3778 H         1 <0>         0.2128
     43 H10         1.8942   -1.6438    3.1578 H         1 <0>         0.2083
     44 H11        -1.4929   -8.0737    3.3108 H         1 <0>         0.1465
     45 H12        -2.6991   -8.2816    1.1742 H         1 <0>         0.1500
     46 H13        -3.1996   -6.2718   -0.1576 H         1 <0>         0.1495
     47 H14        -2.4948   -4.0542    0.6477 H         1 <0>         0.1449
     48 H15        -1.2960   -3.8455    2.7884 H         1 <0>         0.1261
     49 H16        -2.5350   -4.6880    5.8275 H         1 <0>         0.4174
     50 H17        -4.9957   -5.0678    6.3903 H         1 <0>         0.1392
     51 H18        -6.4990   -6.0139    8.0939 H         1 <0>         0.1555
     52 H19        -3.2621   -8.2746    9.7082 H         1 <0>         0.1539
     53 H20        -1.7532   -7.3428    8.0016 H         1 <0>         0.1477
     54 H21        -6.9505   -9.9927   10.1720 H         1 <0>         0.4265
     55 H22        -6.8319   -9.3402    8.6284 H         1 <0>         0.4164
     56 H23         0.9197   -6.6618    1.3521 H         1 <0>         0.4939
     57 H24         2.5915   -4.1770    4.3062 H         1 <0>         0.4947
@<TRIPOS>BOND
     1    1    2 1
     2    1   36 1
     3    1   37 1
     4    1   38 1
     5    2    3 1
     6    2   39 1
     7    2   40 1
     8    3    4 1
     9    4   13 ar
    10    4    5 ar
    11    5    6 ar
    12    5   41 1
    13    6    7 ar
    14    6   42 1
    15    7   12 ar
    16    7    8 2
    17    8    9 1
    18    8   56 1
    19    9   10 1
    20    9   11 1
    21    9   14 1
    22   11   12 2
    23   11   57 1
    24   12   13 ar
    25   13   43 1
    26   14   15 1
    27   15   16 1
    28   15   17 1
    29   15   23 1
    30   17   22 ar
    31   17   18 ar
    32   18   19 ar
    33   18   44 1
    34   19   20 ar
    35   19   45 1
    36   20   21 ar
    37   20   46 1
    38   21   22 ar
    39   21   47 1
    40   22   48 1
    41   23   24 2
    42   23   25 am
    43   25   26 1
    44   25   49 1
    45   26   31 ar
    46   26   27 ar
    47   27   28 ar
    48   27   50 1
    49   28   29 ar
    50   28   51 1
    51   29   30 ar
    52   29   32 1
    53   30   31 ar
    54   30   52 1
    55   31   53 1
    56   32   33 2
    57   32   34 2
    58   32   35 1
    59   35   54 1
    60   35   55 1
@<TRIPOS>MOLECULE
ZINC64053597
   61    65     0     0     0
SMALL
USER_CHARGES

@<TRIPOS>ATOM
      1 C1         -1.0589    0.8393    1.9996 C.ar      1 <0>        -0.1508
      2 C2         -0.1891    1.5365    1.1500 C.ar      1 <0>         0.0657
      3 C3          0.8537    0.9453    0.5294 C.ar      1 <0>        -0.2152
      4 C4          1.1123   -0.4401    0.7204 C.ar      1 <0>         0.3359
      5 N1          2.0421   -1.2290    0.2390 N.pl3     1 <0>        -0.5821
      6 C5          1.8323   -2.5794    0.7728 C.3       1 <0>         0.1420
      7 H1          1.6497   -3.2810   -0.0411 H         1 <0>         0.1782
      8 C6          0.6147   -2.4880    1.6653 C.2       1 <0>         0.0496
      9 C7          0.2079   -1.1991    1.6133 C.ar      1 <0>        -0.1633
     10 C8         -0.9025   -0.4806    2.2499 C.ar      1 <0>        -0.0105
     11 C9          3.0331   -3.0140    1.5729 C.ar      1 <0>        -0.0997
     12 C10         3.6737   -2.1119    2.4027 C.ar      1 <0>        -0.1086
     13 C11         4.7754   -2.5068    3.1387 C.ar      1 <0>        -0.0846
     14 C12         5.2399   -3.8045    3.0473 C.ar      1 <0>        -0.0916
     15 C13         4.5990   -4.7127    2.2151 C.ar      1 <0>         0.1503
     16 C14         3.4893   -4.3142    1.4810 C.ar      1 <0>        -0.1125
     17 N2          5.0673   -6.0278    2.1199 N.am      1 <0>        -0.6661
     18 C15         5.6181   -6.6265    3.1944 C.2       1 <0>         0.5291
     19 O1          5.6217   -6.0618    4.2678 O.2       1 <0>        -0.5023
     20 C16         6.2294   -7.9975    3.0622 C.3       1 <0>        -0.1297
     21 H2          7.0403   -7.9659    2.3345 H         1 <0>         0.1290
     22 C17         5.1615   -8.9908    2.5950 C.3       1 <0>        -0.1316
     23 C18         5.7728  -10.3938    2.5393 C.3       1 <0>        -0.1408
     24 C19         6.3369  -10.7534    3.9156 C.3       1 <0>        -0.0140
     25 N3          7.3706   -9.7824    4.2937 N.4       1 <0>        -0.3846
     26 C20         6.7776   -8.4455    4.4188 C.3       1 <0>         0.0090
     27 C21         7.9632  -10.1758    5.5791 C.3       1 <0>         0.0926
     28 C22         8.6873  -11.4875    5.4178 C.2       1 <0>        -0.1071
     29 C23         9.9812  -11.6356    5.0815 C.2       1 <0>        -0.1342
     30 C24        10.2384  -13.0254    5.0445 C.2       1 <0>        -0.1910
     31 C25         9.0862  -13.6434    5.3606 C.2       1 <0>         0.0395
     32 O2          8.1516  -12.7069    5.5913 O.3       1 <0>        -0.1626
     33 C26         8.8803  -15.1338    5.4466 C.3       1 <0>         0.1463
     34 O3          9.1576  -15.5770    6.7766 O.3       1 <0>        -0.5645
     35 H3         -1.8728    1.3709    2.4703 H         1 <0>         0.1611
     36 H4         -0.3605    2.5900    0.9848 H         1 <0>         0.1642
     37 H5          1.4949    1.5274   -0.1159 H         1 <0>         0.1627
     38 H6          0.1614   -3.2897    2.2293 H         1 <0>         0.2094
     39 H7         -1.5844   -0.9981    2.9083 H         1 <0>         0.1653
     40 H8          3.3127   -1.0966    2.4757 H         1 <0>         0.1245
     41 H9          5.2737   -1.7999    3.7856 H         1 <0>         0.1431
     42 H10         6.1008   -4.1123    3.6222 H         1 <0>         0.1452
     43 H11         2.9862   -5.0193    0.8360 H         1 <0>         0.1412
     44 H12         4.9955   -6.5086    1.2805 H         1 <0>         0.4186
     45 H13         4.3266   -8.9845    3.2957 H         1 <0>         0.0927
     46 H14         4.8089   -8.7072    1.6034 H         1 <0>         0.0993
     47 H15         5.0043  -11.1149    2.2612 H         1 <0>         0.1214
     48 H16         6.5746  -10.4124    1.8012 H         1 <0>         0.0934
     49 H17         5.5343  -10.7347    4.6529 H         1 <0>         0.1336
     50 H18         6.7727  -11.7519    3.8795 H         1 <0>         0.1340
     51 H19         7.5382   -7.7403    4.7537 H         1 <0>         0.1439
     52 H20         5.9661   -8.4759    5.1460 H         1 <0>         0.1422
     53 H21         8.6671   -9.4097    5.9042 H         1 <0>         0.1604
     54 H22         7.1751  -10.2849    6.3242 H         1 <0>         0.1471
     55 H23        10.6879  -10.8447    4.8780 H         1 <0>         0.1645
     56 H24        11.1793  -13.4998    4.8077 H         1 <0>         0.1664
     57 H25         7.8480  -15.3734    5.1917 H         1 <0>         0.0719
     58 H26         9.5523  -15.6343    4.7494 H         1 <0>         0.0930
     59 H27         9.0454  -16.5287    6.9055 H         1 <0>         0.4011
     60 H28         2.7502   -0.9643   -0.3688 H         1 <0>         0.4555
     61 H29         8.0893   -9.7648    3.5857 H         1 <0>         0.4243
@<TRIPOS>BOND
     1    1   10 ar
     2    1    2 ar
     3    1   35 1
     4    2    3 ar
     5    2   36 1
     6    3    4 ar
     7    3   37 1
     8    4    9 ar
     9    4    5 2
    10    5    6 1
    11    5   60 1
    12    6    7 1
    13    6    8 1
    14    6   11 1
    15    8    9 2
    16    8   38 1
    17    9   10 ar
    18   10   39 1
    19   11   16 ar
    20   11   12 ar
    21   12   13 ar
    22   12   40 1
    23   13   14 ar
    24   13   41 1
    25   14   15 ar
    26   14   42 1
    27   15   16 ar
    28   15   17 1
    29   16   43 1
    30   17   18 am
    31   17   44 1
    32   18   19 2
    33   18   20 1
    34   20   21 1
    35   20   26 1
    36   20   22 1
    37   22   23 1
    38   22   45 1
    39   22   46 1
    40   23   24 1
    41   23   47 1
    42   23   48 1
    43   24   25 1
    44   24   49 1
    45   24   50 1
    46   25   26 1
    47   25   27 1
    48   25   61 1
    49   26   51 1
    50   26   52 1
    51   27   28 1
    52   27   53 1
    53   27   54 1
    54   28   32 1
    55   28   29 2
    56   29   30 1
    57   29   55 1
    58   30   31 2
    59   30   56 1
    60   31   32 1
    61   31   33 1
    62   33   34 1
    63   33   57 1
    64   33   58 1
    65   34   59 1
@<TRIPOS>MOLECULE
ZINC01806733
   65    71     0     0     0
SMALL
USER_CHARGES
N-[2-[(5,6-diphenyl-1,2,4-triazin-3-yl)sulfanyl]acenaphthen-1-yl]benzenesulfonamide
@<TRIPOS>ATOM
      1 C1         -0.4625    6.1663   -3.6119 C.ar      1 <0>        -0.0872
      2 C2          0.2059    7.0425   -2.7757 C.ar      1 <0>        -0.1283
      3 C3          1.2688    6.5996   -2.0152 C.ar      1 <0>        -0.0635
      4 C4          1.6687    5.2658   -2.0909 C.ar      1 <0>        -0.0790
      5 C5          0.9944    4.3886   -2.9396 C.ar      1 <0>        -0.0710
      6 C6         -0.0707    4.8419   -3.6909 C.ar      1 <0>        -0.1274
      7 C7          2.8094    4.7841   -1.2774 C.ar      1 <0>         0.2294
      8 C8          2.8138    3.4798   -0.7436 C.ar      1 <0>         0.0647
      9 N1          3.8528    3.0867   -0.0145 N.ar      1 <0>        -0.1623
     10 N2          4.8430    3.8823    0.1920 N.ar      1 <0>        -0.2825
     11 C9          4.8603    5.1154   -0.3016 C.ar      1 <0>         0.2225
     12 N3          3.8529    5.5736   -1.0339 N.ar      1 <0>        -0.4442
     13 S1          6.2425    6.1594    0.0216 S.3       1 <0>         0.0705
     14 C10         7.1742    5.1042    1.1594 C.3       1 <0>        -0.0519
     15 H1          7.2162    4.0838    0.7786 H         1 <0>         0.1396
     16 C11         6.5427    5.1275    2.5301 C.ar      1 <0>        -0.0786
     17 C12         5.3254    4.7759    3.0286 C.ar      1 <0>        -0.0727
     18 C13         5.0500    4.9267    4.3894 C.ar      1 <0>        -0.1154
     19 C14         5.9679    5.4237    5.2693 C.ar      1 <0>        -0.0911
     20 C15         7.2337    5.7962    4.7888 C.ar      1 <0>        -0.0493
     21 C16         7.4880    5.6353    3.4149 C.ar      1 <0>        -0.0562
     22 C17         8.7058    5.9708    2.8316 C.ar      1 <0>        -0.1124
     23 C18         9.6817    6.4742    3.6360 C.ar      1 <0>        -0.0681
     24 C19         9.4520    6.6430    5.0036 C.ar      1 <0>        -0.1166
     25 C20         8.2629    6.3185    5.5896 C.ar      1 <0>        -0.0909
     26 C21         8.6010    5.6605    1.3583 C.3       1 <0>         0.2287
     27 H2          9.3412    4.9122    1.0748 H         1 <0>         0.1203
     28 N4          8.7851    6.8803    0.5681 N.pl3     1 <0>        -1.1049
     29 S2         10.2562    7.2083   -0.1180 S.o2      1 <0>         2.6891
     30 O1         10.1088    8.4287   -0.8308 O.2       1 <0>        -0.9471
     31 O2         11.2285    7.0355    0.9038 O.2       1 <0>        -0.9446
     32 C22        10.5610    5.9566   -1.3201 C.ar      1 <0>        -0.6786
     33 C23        11.2238    4.7984   -0.9591 C.ar      1 <0>        -0.0249
     34 C24        11.4586    3.8144   -1.9011 C.ar      1 <0>        -0.1384
     35 C25        11.0397    3.9928   -3.2063 C.ar      1 <0>        -0.0602
     36 C26        10.3819    5.1535   -3.5685 C.ar      1 <0>        -0.1384
     37 C27        10.1424    6.1353   -2.6254 C.ar      1 <0>        -0.0148
     38 C28         1.6750    2.5634   -0.9863 C.ar      1 <0>        -0.0592
     39 C29         1.8982    1.1960   -1.1439 C.ar      1 <0>        -0.0738
     40 C30         0.8336    0.3475   -1.3693 C.ar      1 <0>        -0.1249
     41 C31        -0.4524    0.8517   -1.4448 C.ar      1 <0>        -0.0952
     42 C32        -0.6807    2.2066   -1.2836 C.ar      1 <0>        -0.1241
     43 C33         0.3759    3.0650   -1.0577 C.ar      1 <0>        -0.0824
     44 H3         -1.2938    6.5175   -4.2052 H         1 <0>         0.1297
     45 H4         -0.1045    8.0753   -2.7182 H         1 <0>         0.1317
     46 H5          1.7896    7.2845   -1.3625 H         1 <0>         0.1318
     47 H6          1.3022    3.3555   -3.0055 H         1 <0>         0.1349
     48 H7         -0.5963    4.1625   -4.3455 H         1 <0>         0.1319
     49 H8          4.5688    4.3787    2.3682 H         1 <0>         0.1186
     50 H9          4.0763    4.6404    4.7586 H         1 <0>         0.1243
     51 H10         5.7247    5.5288    6.3163 H         1 <0>         0.1327
     52 H11        10.6387    6.7447    3.2146 H         1 <0>         0.1432
     53 H12        10.2435    7.0445    5.6191 H         1 <0>         0.1287
     54 H13         8.1160    6.4604    6.6501 H         1 <0>         0.1326
     55 H14         8.0454    7.4959    0.4469 H         1 <0>         0.4197
     56 H15        11.5547    4.6608    0.0596 H         1 <0>         0.1416
     57 H16        11.9728    2.9077   -1.6182 H         1 <0>         0.1349
     58 H17        11.2265    3.2256   -3.9431 H         1 <0>         0.1323
     59 H18        10.0549    5.2930   -4.5883 H         1 <0>         0.1344
     60 H19         9.6286    7.0421   -2.9083 H         1 <0>         0.1417
     61 H20         2.9022    0.8018   -1.0893 H         1 <0>         0.1300
     62 H21         1.0052   -0.7117   -1.4916 H         1 <0>         0.1299
     63 H22        -1.2820    0.1844   -1.6261 H         1 <0>         0.1280
     64 H23        -1.6873    2.5940   -1.3394 H         1 <0>         0.1301
     65 H24         0.1970    4.1232   -0.9367 H         1 <0>         0.1326
@<TRIPOS>BOND
     1    1    6 ar
     2    1    2 ar
     3    1   44 1
     4    2    3 ar
     5    2   45 1
     6    3    4 ar
     7    3   46 1
     8    4    5 ar
     9    4    7 1
    10    5    6 ar
    11    5   47 1
    12    6   48 1
    13    7   12 ar
    14    7    8 ar
    15    8    9 ar
    16    8   38 1
    17    9   10 ar
    18   10   11 ar
    19   11   12 ar
    20   11   13 1
    21   13   14 1
    22   14   15 1
    23   14   26 1
    24   14   16 1
    25   16   21 ar
    26   16   17 ar
    27   17   18 ar
    28   17   49 1
    29   18   19 ar
    30   18   50 1
    31   19   20 ar
    32   19   51 1
    33   20   25 ar
    34   20   21 ar
    35   21   22 ar
    36   22   23 ar
    37   22   26 1
    38   23   24 ar
    39   23   52 1
    40   24   25 ar
    41   24   53 1
    42   25   54 1
    43   26   27 1
    44   26   28 1
    45   28   29 1
    46   28   55 1
    47   29   30 2
    48   29   31 2
    49   29   32 1
    50   32   37 ar
    51   32   33 ar
    52   33   34 ar
    53   33   56 1
    54   34   35 ar
    55   34   57 1
    56   35   36 ar
    57   35   58 1
    58   36   37 ar
    59   36   59 1
    60   37   60 1
    61   38   43 ar
    62   38   39 ar
    63   39   40 ar
    64   39   61 1
    65   40   41 ar
    66   40   62 1
    67   41   42 ar
    68   41   63 1
    69   42   43 ar
    70   42   64 1
    71   43   65 1
@<TRIPOS>MOLECULE
ZINC20369181
   72    74     0     0     0
SMALL
USER_CHARGES
1-(4-chlorobenzoyl)-N-[4-(dibutylsulfamoyl)phenyl]piperidine-4-carboxamide
@<TRIPOS>ATOM
      1 C1         12.0492   13.5283    7.7542 C.3       1 <0>        -0.1552
      2 C2         11.3364   12.7912    6.6187 C.3       1 <0>        -0.1224
      3 C3         11.9522   11.4011    6.4474 C.3       1 <0>        -0.1435
      4 C4         11.2394   10.6639    5.3119 C.3       1 <0>         0.1224
      5 N1         11.8290    9.3328    5.1479 N.pl3     1 <0>        -0.9945
      6 C5         13.0259    9.1586    4.3212 C.3       1 <0>         0.1095
      7 C6         12.6147    8.9961    2.8565 C.3       1 <0>        -0.1442
      8 C7         13.8646    8.8142    1.9931 C.3       1 <0>        -0.1248
      9 C8         13.4535    8.6517    0.5283 C.3       1 <0>        -0.1538
     10 S1         11.1426    8.0252    5.8970 S.o2      1 <0>         2.6881
     11 O1         10.4152    8.5295    7.0087 O.2       1 <0>        -0.9532
     12 O2         12.1687    7.0520    6.0362 O.2       1 <0>        -0.9550
     13 C9          9.9561    7.3501    4.7831 C.ar      1 <0>        -0.6978
     14 C10        10.3352    6.3748    3.8790 C.ar      1 <0>         0.0037
     15 C11         9.4073    5.8430    3.0051 C.ar      1 <0>        -0.1517
     16 C12         8.0925    6.2890    3.0347 C.ar      1 <0>         0.2122
     17 C13         7.7162    7.2726    3.9400 C.ar      1 <0>        -0.1723
     18 C14         8.6476    7.7963    4.8151 C.ar      1 <0>         0.0031
     19 N2          7.1501    5.7526    2.1504 N.am      1 <0>        -0.6876
     20 C15         7.2960    4.4934    1.6924 C.2       1 <0>         0.5193
     21 O3          8.1888    3.7924    2.1196 O.2       1 <0>        -0.5079
     22 C16         6.3498    3.9565    0.6496 C.3       1 <0>        -0.1045
     23 C17         6.7331    2.5151    0.3071 C.3       1 <0>        -0.1169
     24 C18         5.7484    1.9611   -0.7275 C.3       1 <0>         0.1099
     25 N3          5.7168    2.8679   -1.8831 N.am      1 <0>        -0.6066
     26 C19         5.4523    4.2950   -1.6542 C.3       1 <0>         0.0903
     27 C20         6.4348    4.8218   -0.6099 C.3       1 <0>        -0.1277
     28 C21         5.9318    2.4005   -3.1288 C.2       1 <0>         0.5629
     29 O4          6.0716    1.2074   -3.3146 O.2       1 <0>        -0.5240
     30 C22         5.9975    3.3386   -4.2689 C.ar      1 <0>        -0.1248
     31 C23         7.0203    3.2244   -5.2123 C.ar      1 <0>        -0.0545
     32 C24         7.0762    4.1023   -6.2742 C.ar      1 <0>        -0.1115
     33 C25         6.1206    5.0963   -6.4056 C.ar      1 <0>        -0.0154
     34 C26         5.1035    5.2146   -5.4728 C.ar      1 <0>        -0.1145
     35 C27         5.0372    4.3426   -4.4067 C.ar      1 <0>        -0.0832
     36 Cl1         6.1982    6.1986   -7.7445 Cl        1 <0>        -0.0581
     37 H1         11.6065   14.5277    7.8774 H         1 <0>         0.0553
     38 H2         13.1178   13.6278    7.5128 H         1 <0>         0.0540
     39 H3         11.9358   12.9593    8.6888 H         1 <0>         0.0560
     40 H4         10.2678   12.6917    6.8601 H         1 <0>         0.0652
     41 H5         11.4497   13.3602    5.6841 H         1 <0>         0.0628
     42 H6         13.0208   11.5007    6.2060 H         1 <0>         0.0684
     43 H7         11.8389   10.8321    7.3820 H         1 <0>         0.0725
     44 H8         10.1708   10.5644    5.5533 H         1 <0>         0.0816
     45 H9         11.3528   11.2328    4.3773 H         1 <0>         0.0819
     46 H10        13.6743   10.0411    4.4243 H         1 <0>         0.0874
     47 H11        13.5717    8.2621    4.6505 H         1 <0>         0.0956
     48 H12        11.9662    8.1136    2.7535 H         1 <0>         0.0638
     49 H13        12.0689    9.8926    2.5272 H         1 <0>         0.0692
     50 H14        14.5130    9.6967    2.0962 H         1 <0>         0.0656
     51 H15        14.4104    7.9177    2.3223 H         1 <0>         0.0666
     52 H16        14.3522    8.5209   -0.0924 H         1 <0>         0.0561
     53 H17        12.9077    9.5482    0.1990 H         1 <0>         0.0534
     54 H18        12.8051    7.7692    0.4252 H         1 <0>         0.0532
     55 H19        11.3579    6.0284    3.8565 H         1 <0>         0.1413
     56 H20         9.7038    5.0808    2.2997 H         1 <0>         0.1480
     57 H21         6.6954    7.6244    3.9627 H         1 <0>         0.1362
     58 H22         8.3546    8.5581    5.5224 H         1 <0>         0.1425
     59 H23         6.2902    6.3586    1.8290 H         1 <0>         0.4389
     60 H24         5.3272    3.9848    1.0539 H         1 <0>         0.1072
     61 H25         7.7520    2.4952   -0.1069 H         1 <0>         0.0783
     62 H26         6.6953    1.8993    1.2178 H         1 <0>         0.0893
     63 H27         6.0764    0.9610   -1.0471 H         1 <0>         0.1021
     64 H28         4.7460    1.8925   -0.2797 H         1 <0>         0.0748
     65 H29         5.5811    4.8475   -2.5966 H         1 <0>         0.1056
     66 H30         4.4217    4.4234   -1.2918 H         1 <0>         0.0797
     67 H31         6.1806    5.8620   -0.3580 H         1 <0>         0.0844
     68 H32         7.4571    4.7818   -1.0140 H         1 <0>         0.0784
     69 H33         7.7636    2.4472   -5.1131 H         1 <0>         0.1416
     70 H34         7.8669    4.0149   -7.0047 H         1 <0>         0.1430
     71 H35         4.3612    5.9916   -5.5805 H         1 <0>         0.1424
     72 H36         4.2441    4.4362   -3.6796 H         1 <0>         0.1421
@<TRIPOS>BOND
     1    1    2 1
     2    1   37 1
     3    1   38 1
     4    1   39 1
     5    2    3 1
     6    2   40 1
     7    2   41 1
     8    3    4 1
     9    3   42 1
    10    3   43 1
    11    4    5 1
    12    4   44 1
    13    4   45 1
    14    5    6 1
    15    5   10 1
    16    6    7 1
    17    6   46 1
    18    6   47 1
    19    7    8 1
    20    7   48 1
    21    7   49 1
    22    8    9 1
    23    8   50 1
    24    8   51 1
    25    9   52 1
    26    9   53 1
    27    9   54 1
    28   10   11 2
    29   10   12 2
    30   10   13 1
    31   13   18 ar
    32   13   14 ar
    33   14   15 ar
    34   14   55 1
    35   15   16 ar
    36   15   56 1
    37   16   17 ar
    38   16   19 1
    39   17   18 ar
    40   17   57 1
    41   18   58 1
    42   19   20 am
    43   19   59 1
    44   20   21 2
    45   20   22 1
    46   22   27 1
    47   22   23 1
    48   22   60 1
    49   23   24 1
    50   23   61 1
    51   23   62 1
    52   24   25 1
    53   24   63 1
    54   24   64 1
    55   25   26 1
    56   25   28 am
    57   26   27 1
    58   26   65 1
    59   26   66 1
    60   27   67 1
    61   27   68 1
    62   28   29 2
    63   28   30 1
    64   30   35 ar
    65   30   31 ar
    66   31   32 ar
    67   31   69 1
    68   32   33 ar
    69   32   70 1
    70   33   34 ar
    71   33   36 1
    72   34   35 ar
    73   34   71 1
    74   35   72 1
@<TRIPOS>MOLECULE
ZINC36116223
   75    78     0     0     0
SMALL
USER_CHARGES

@<TRIPOS>ATOM
      1 C1         -0.0157    1.4742   -0.0074 C.3       1 <0>        -0.1169
      2 C2          0.0050   -0.0326   -0.0110 C.ar      1 <0>        -0.0807
      3 C3         -0.7377   -0.7305   -0.9457 C.ar      1 <0>        -0.1152
      4 C4         -0.7210   -2.1114   -0.9518 C.ar      1 <0>        -0.1154
      5 C5          0.0429   -2.7994   -0.0176 C.ar      1 <0>         0.1267
      6 C6          0.7878   -2.0952    0.9199 C.ar      1 <0>        -0.0821
      7 C7          0.7710   -0.7143    0.9168 C.ar      1 <0>        -0.1096
      8 N1          0.0617   -4.1960   -0.0207 N.pl3     1 <0>        -0.9266
      9 C8          0.4943   -4.9201   -1.2185 C.3       1 <0>         0.1023
     10 C9          1.9962   -5.0438   -1.2157 C.2       1 <0>         0.4998
     11 O1          2.6417   -4.5734   -0.3030 O.2       1 <0>        -0.5179
     12 N2          2.6221   -5.6772   -2.2274 N.am      1 <0>        -0.7237
     13 C10         4.0821   -5.7975   -2.2247 C.3       1 <0>         0.1934
     14 H1          4.5198   -4.9006   -1.7862 H         1 <0>         0.0932
     15 C11         4.4916   -7.0199   -1.4007 C.3       1 <0>        -0.1589
     16 C12         4.5757   -5.9571   -3.6396 C.ar      1 <0>        -0.1538
     17 C13         3.8711   -6.7452   -4.5312 C.ar      1 <0>        -0.0632
     18 C14         4.3206   -6.8936   -5.8285 C.ar      1 <0>        -0.1975
     19 C15         5.4818   -6.2502   -6.2375 C.ar      1 <0>         0.2247
     20 C16         6.1871   -5.4593   -5.3394 C.ar      1 <0>        -0.1961
     21 C17         5.7289   -5.3107   -4.0450 C.ar      1 <0>        -0.0548
     22 N3          5.9395   -6.3986   -7.5488 N.pl3     1 <0>        -0.6274
     23 C18         7.2291   -5.8276   -7.9607 C.3       1 <0>         0.1193
     24 C19         8.0777   -6.9336   -8.5957 C.3       1 <0>        -0.1375
     25 C20         7.2884   -7.5879   -9.7320 C.3       1 <0>        -0.1145
     26 C21         6.0124   -8.2199   -9.1711 C.3       1 <0>        -0.1091
     27 H2          6.2749   -8.9576   -8.4127 H         1 <0>         0.0735
     28 C22         5.1432   -7.1337   -8.5409 C.3       1 <0>         0.1251
     29 C23         5.2409   -8.9027  -10.3022 C.3       1 <0>        -0.1469
     30 S1         -0.4049   -5.0333    1.3297 S.o2      1 <0>         2.6885
     31 O2          0.3202   -6.2553    1.3206 O.2       1 <0>        -0.9441
     32 O3         -0.3435   -4.1191    2.4158 O.2       1 <0>        -0.9387
     33 C24        -2.1032   -5.4539    1.1209 C.ar      1 <0>        -0.7173
     34 C25        -3.0877   -4.5885    1.5608 C.ar      1 <0>         0.0243
     35 C26        -4.4199   -4.9161    1.3987 C.ar      1 <0>        -0.1701
     36 C27        -4.7696   -6.1145    0.7934 C.ar      1 <0>         0.1854
     37 C28        -3.7799   -6.9809    0.3524 C.ar      1 <0>        -0.2289
     38 C29        -2.4491   -6.6462    0.5123 C.ar      1 <0>         0.0186
     39 O4         -6.0794   -6.4393    0.6332 O.3       1 <0>        -0.3094
     40 C30        -6.3654   -7.6889    0.0018 C.3       1 <0>         0.0215
     41 H3          0.7762    1.8500   -0.6553 H         1 <0>         0.0716
     42 H4         -0.9810    1.8252   -0.3723 H         1 <0>         0.0672
     43 H5          0.1427    1.8373    1.0081 H         1 <0>         0.0682
     44 H6         -1.3317   -0.1950   -1.6715 H         1 <0>         0.1262
     45 H7         -1.3016   -2.6559   -1.6818 H         1 <0>         0.1259
     46 H8          1.3825   -2.6270    1.6479 H         1 <0>         0.1329
     47 H9          1.3534   -0.1661    1.6427 H         1 <0>         0.1284
     48 H10         0.0478   -5.9145   -1.2229 H         1 <0>         0.1129
     49 H11         0.1763   -4.3750   -2.1072 H         1 <0>         0.1164
     50 H12         2.1058   -6.0534   -2.9573 H         1 <0>         0.3984
     51 H13         5.5780   -7.1094   -1.3987 H         1 <0>         0.0664
     52 H14         4.1347   -6.9044   -0.3773 H         1 <0>         0.0649
     53 H15         4.0540   -7.9168   -1.8392 H         1 <0>         0.0577
     54 H16         2.9686   -7.2454   -4.2124 H         1 <0>         0.1180
     55 H17         3.7701   -7.5095   -6.5243 H         1 <0>         0.1231
     56 H18         7.0904   -4.9580   -5.6540 H         1 <0>         0.1238
     57 H19         6.2744   -4.6924   -3.3474 H         1 <0>         0.1227
     58 H20         7.0614   -5.0328   -8.6876 H         1 <0>         0.0619
     59 H21         7.7457   -5.4255   -7.0892 H         1 <0>         0.0833
     60 H22         8.9977   -6.5040   -8.9922 H         1 <0>         0.0743
     61 H23         8.3207   -7.6834   -7.8428 H         1 <0>         0.0665
     62 H24         7.0244   -6.8328  -10.4725 H         1 <0>         0.0636
     63 H25         7.8993   -8.3588  -10.2016 H         1 <0>         0.0652
     64 H26         4.2841   -7.5931   -8.0522 H         1 <0>         0.0827
     65 H27         4.8016   -6.4478   -9.3162 H         1 <0>         0.0616
     66 H28         5.8630   -9.6773  -10.7504 H         1 <0>         0.0593
     67 H29         4.3322   -9.3527   -9.9022 H         1 <0>         0.0569
     68 H30         4.9777   -8.1645  -11.0597 H         1 <0>         0.0568
     69 H31        -2.8149   -3.6557    2.0320 H         1 <0>         0.1478
     70 H32        -5.1885   -4.2401    1.7432 H         1 <0>         0.1435
     71 H33        -4.0496   -7.9144   -0.1190 H         1 <0>         0.1402
     72 H34        -1.6783   -7.3184    0.1652 H         1 <0>         0.1423
     73 H35        -5.9371   -7.6959   -1.0006 H         1 <0>         0.0610
     74 H36        -5.9322   -8.4996    0.5876 H         1 <0>         0.0614
     75 H37        -7.4450   -7.8244   -0.0634 H         1 <0>         0.1068
@<TRIPOS>BOND
     1    1    2 1
     2    1   41 1
     3    1   42 1
     4    1   43 1
     5    2    7 ar
     6    2    3 ar
     7    3    4 ar
     8    3   44 1
     9    4    5 ar
    10    4   45 1
    11    5    6 ar
    12    5    8 1
    13    6    7 ar
    14    6   46 1
    15    7   47 1
    16    8    9 1
    17    8   30 1
    18    9   10 1
    19    9   48 1
    20    9   49 1
    21   10   11 2
    22   10   12 am
    23   12   13 1
    24   12   50 1
    25   13   14 1
    26   13   15 1
    27   13   16 1
    28   15   51 1
    29   15   52 1
    30   15   53 1
    31   16   21 ar
    32   16   17 ar
    33   17   18 ar
    34   17   54 1
    35   18   19 ar
    36   18   55 1
    37   19   20 ar
    38   19   22 1
    39   20   21 ar
    40   20   56 1
    41   21   57 1
    42   22   28 1
    43   22   23 1
    44   23   24 1
    45   23   58 1
    46   23   59 1
    47   24   25 1
    48   24   60 1
    49   24   61 1
    50   25   26 1
    51   25   62 1
    52   25   63 1
    53   26   27 1
    54   26   28 1
    55   26   29 1
    56   28   64 1
    57   28   65 1
    58   29   66 1
    59   29   67 1
    60   29   68 1
    61   30   31 2
    62   30   32 2
    63   30   33 1
    64   33   38 ar
    65   33   34 ar
    66   34   35 ar
    67   34   69 1
    68   35   36 ar
    69   35   70 1
    70   36   37 ar
    71   36   39 1
    72   37   38 ar
    73   37   71 1
    74   38   72 1
    75   39   40 1
    76   40   73 1
    77   40   74 1
    78   40   75 1
@<TRIPOS>MOLECULE
ZINC01301427
   68    73     0     0     0
SMALL
USER_CHARGES

@<TRIPOS>ATOM
      1 C1         -1.6565    1.2313   -0.8839 C.3       1 <0>        -0.1183
      2 C2         -1.3684   -0.2429   -0.7624 C.ar      1 <0>        -0.0841
      3 C3         -1.1838   -1.0071   -1.8994 C.ar      1 <0>        -0.1182
      4 C4         -0.9195   -2.3593   -1.7879 C.ar      1 <0>        -0.1063
      5 C5         -0.8393   -2.9473   -0.5394 C.ar      1 <0>        -0.0863
      6 C6         -1.0229   -2.1829    0.5977 C.ar      1 <0>        -0.1088
      7 C7         -1.2830   -0.8298    0.4863 C.ar      1 <0>        -0.1180
      8 C8         -0.5521   -4.4217   -0.4179 C.3       1 <0>        -0.0335
      9 H1         -0.4376   -4.8587   -1.4098 H         1 <0>         0.0897
     10 C9          0.7251   -4.6355    0.3929 C.3       1 <0>        -0.1023
     11 C10         1.0087   -6.1221    0.5290 C.2       1 <0>         0.2588
     12 C11        -0.0024   -7.0052    0.5935 C.2       1 <0>        -0.2848
     13 C12         0.1367   -8.5022    0.7320 C.3       1 <0>         0.2446
     14 H2         -0.5439   -8.8415    1.5129 H         1 <0>         0.1281
     15 N1          1.4723   -8.9541    1.0596 N.am      1 <0>        -0.5480
     16 C13         2.5307   -8.7704    0.1700 C.ar      1 <0>         0.1091
     17 C14         3.1789   -9.8452   -0.4174 C.ar      1 <0>        -0.0911
     18 C15         4.1926   -9.6118   -1.3301 C.ar      1 <0>        -0.1049
     19 C16         4.5559   -8.3180   -1.6579 C.ar      1 <0>        -0.0951
     20 C17         3.9219   -7.2422   -1.0603 C.ar      1 <0>        -0.1155
     21 C18         2.9233   -7.4748   -0.1304 C.ar      1 <0>         0.1482
     22 N2          2.3251   -6.4473    0.5884 N.pl3     1 <0>        -0.6917
     23 C19         1.6965   -9.5610    2.2420 C.2       1 <0>         0.6139
     24 O1          0.7630   -9.8255    2.9769 O.2       1 <0>        -0.5069
     25 C20         3.0642   -9.9023    2.6427 C.2       1 <0>        -0.2701
     26 C21         3.4973  -10.6337    3.7384 C.2       1 <0>        -0.0604
     27 C22         4.8579  -10.7902    3.8516 C.2       1 <0>        -0.1882
     28 C23         5.6654  -10.2365    2.9135 C.2       1 <0>        -0.2446
     29 S1          4.6045   -9.4922    1.8444 S.3       1 <0>         0.2414
     30 C24        -0.2748   -9.1423   -0.5687 C.ar      1 <0>        -0.0544
     31 C25        -1.3739   -9.9821   -0.6056 C.ar      1 <0>        -0.0935
     32 C26        -1.7561  -10.5714   -1.7928 C.ar      1 <0>        -0.0543
     33 C27        -1.0311  -10.3186   -2.9591 C.ar      1 <0>        -0.1231
     34 C28         0.0769   -9.4701   -2.9147 C.ar      1 <0>        -0.0635
     35 C29         0.4447   -8.8830   -1.7218 C.ar      1 <0>        -0.1195
     36 C30        -1.4342  -10.9464   -4.2341 C.2       1 <0>         0.5071
     37 O2         -2.3984  -11.6845   -4.2695 O.2       1 <0>        -0.5021
     38 O3         -0.7326  -10.7005   -5.3574 O.3       1 <0>        -0.3501
     39 C31        -1.1788  -11.3411   -6.5543 C.3       1 <0>         0.0340
     40 C32        -1.3430   -6.5593    0.5149 C.2       1 <0>         0.4003
     41 O4         -2.2384   -7.3766    0.6020 O.2       1 <0>        -0.4618
     42 C33        -1.6994   -5.1151    0.3265 C.3       1 <0>        -0.1574
     43 H3         -0.7181    1.7858   -0.8886 H         1 <0>         0.0712
     44 H4         -2.1952    1.4209   -1.8124 H         1 <0>         0.0670
     45 H5         -2.2647    1.5536   -0.0387 H         1 <0>         0.0670
     46 H6         -1.2465   -0.5477   -2.8748 H         1 <0>         0.1225
     47 H7         -0.7761   -2.9566   -2.6762 H         1 <0>         0.1224
     48 H8         -0.9605   -2.6423    1.5731 H         1 <0>         0.1221
     49 H9         -1.4227   -0.2318    1.3747 H         1 <0>         0.1225
     50 H10         1.5606   -4.1524   -0.1137 H         1 <0>         0.0945
     51 H11         0.6024   -4.1981    1.3837 H         1 <0>         0.0959
     52 H12         2.8956  -10.8563   -0.1647 H         1 <0>         0.1332
     53 H13         4.7036  -10.4452   -1.7891 H         1 <0>         0.1359
     54 H14         5.3373   -8.1464   -2.3834 H         1 <0>         0.1361
     55 H15         4.2041   -6.2316   -1.3164 H         1 <0>         0.1376
     56 H16         2.8907   -5.9230    1.1768 H         1 <0>         0.4117
     57 H17         2.8091  -11.0533    4.4573 H         1 <0>         0.1484
     58 H18         5.2783  -11.3462    4.6765 H         1 <0>         0.1356
     59 H19         6.7437  -10.2698    2.8629 H         1 <0>         0.1849
     60 H20        -1.9335  -10.1771    0.2973 H         1 <0>         0.1367
     61 H21        -2.6139  -11.2270   -1.8202 H         1 <0>         0.1393
     62 H22         0.6422   -9.2706   -3.8131 H         1 <0>         0.1372
     63 H23         1.2989   -8.2230   -1.6869 H         1 <0>         0.1272
     64 H24        -1.1482  -12.4225   -6.4208 H         1 <0>         0.0618
     65 H25        -2.2005  -11.0309   -6.7733 H         1 <0>         0.0619
     66 H26        -0.5281  -11.0587   -7.3819 H         1 <0>         0.1041
     67 H27        -1.8419   -4.6444    1.2992 H         1 <0>         0.1039
     68 H28        -2.6156   -5.0366   -0.2587 H         1 <0>         0.1005
@<TRIPOS>BOND
     1    1    2 1
     2    1   43 1
     3    1   44 1
     4    1   45 1
     5    2    7 ar
     6    2    3 ar
     7    3    4 ar
     8    3   46 1
     9    4    5 ar
    10    4   47 1
    11    5    6 ar
    12    5    8 1
    13    6    7 ar
    14    6   48 1
    15    7   49 1
    16    8    9 1
    17    8   42 1
    18    8   10 1
    19   10   11 1
    20   10   50 1
    21   10   51 1
    22   11   22 1
    23   11   12 2
    24   12   13 1
    25   12   40 1
    26   13   14 1
    27   13   15 1
    28   13   30 1
    29   15   16 1
    30   15   23 am
    31   16   21 ar
    32   16   17 ar
    33   17   18 ar
    34   17   52 1
    35   18   19 ar
    36   18   53 1
    37   19   20 ar
    38   19   54 1
    39   20   21 ar
    40   20   55 1
    41   21   22 1
    42   22   56 1
    43   23   24 2
    44   23   25 1
    45   25   29 1
    46   25   26 2
    47   26   27 1
    48   26   57 1
    49   27   28 2
    50   27   58 1
    51   28   29 1
    52   28   59 1
    53   30   35 ar
    54   30   31 ar
    55   31   32 ar
    56   31   60 1
    57   32   33 ar
    58   32   61 1
    59   33   34 ar
    60   33   36 1
    61   34   35 ar
    62   34   62 1
    63   35   63 1
    64   36   37 2
    65   36   38 1
    66   38   39 1
    67   39   64 1
    68   39   65 1
    69   39   66 1
    70   40   41 2
    71   40   42 1
    72   42   67 1
    73   42   68 1
@<TRIPOS>MOLECULE
ZINC01790183
   69    74     0     0     0
SMALL
USER_CHARGES

@<TRIPOS>ATOM
      1 C1         -0.0187    1.5258    0.0104 C.3       1 <0>        -0.1486
      2 C2          0.0021   -0.0041    0.0020 C.3       1 <0>        -0.0816
      3 C3         -1.4117   -0.5257    0.0127 C.ar      1 <0>         0.1973
      4 C4         -2.0483   -0.7651    1.2246 C.ar      1 <0>        -0.1826
      5 C5         -3.3375   -1.2377    1.2367 C.ar      1 <0>         0.0520
      6 C6         -3.9989   -1.4799    0.0111 C.ar      1 <0>        -0.1514
      7 C7         -5.3693   -1.9872   -0.1883 C.ar      1 <0>         0.2145
      8 C8         -5.7786   -2.1362   -1.5186 C.ar      1 <0>        -0.2228
      9 C9         -7.0490   -2.6064   -1.8256 C.ar      1 <0>         0.2005
     10 N1         -7.8695   -2.9125   -0.8201 N.ar      1 <0>        -0.5130
     11 C10        -7.4673   -2.7659    0.4287 C.ar      1 <0>         0.3177
     12 N2         -6.2780   -2.3253    0.7543 N.ar      1 <0>        -0.5006
     13 S1         -7.5632   -2.7930   -3.5005 S.3       1 <0>         0.0633
     14 C11        -9.2597   -3.4221   -3.3712 C.3       1 <0>        -0.1496
     15 C12        -9.8255   -3.6286   -4.7526 C.2       1 <0>         0.5364
     16 O1         -9.1508   -3.3761   -5.7283 O.2       1 <0>        -0.5119
     17 N3        -11.0814   -4.0937   -4.9039 N.am      1 <0>        -0.7160
     18 C13       -11.6315   -4.2944   -6.2468 C.3       1 <0>         0.2321
     19 C14       -12.7178   -5.3376   -6.1939 C.ar      1 <0>        -0.0903
     20 C15       -13.6098   -5.3537   -5.1380 C.ar      1 <0>        -0.1116
     21 C16       -14.6062   -6.3106   -5.0895 C.ar      1 <0>        -0.1145
     22 C17       -14.7109   -7.2511   -6.0972 C.ar      1 <0>        -0.1148
     23 C18       -13.8195   -7.2344   -7.1536 C.ar      1 <0>        -0.1137
     24 C19       -12.8257   -6.2749   -7.2042 C.ar      1 <0>        -0.1028
     25 C20       -12.2056   -2.9965   -6.7535 C.ar      1 <0>        -0.0930
     26 C21       -12.9044   -2.1681   -5.8955 C.ar      1 <0>        -0.1038
     27 C22       -13.4311   -0.9775   -6.3603 C.ar      1 <0>        -0.1202
     28 C23       -13.2586   -0.6152   -7.6831 C.ar      1 <0>        -0.1163
     29 C24       -12.5591   -1.4432   -8.5410 C.ar      1 <0>        -0.1169
     30 C25       -12.0287   -2.6317   -8.0751 C.ar      1 <0>        -0.1000
     31 S2         -4.3829   -1.6170   -2.4783 S.3       1 <0>         0.1676
     32 C26        -3.2676   -1.2067   -1.1584 C.ar      1 <0>         0.1284
     33 N4         -2.0355   -0.7456   -1.1273 N.ar      1 <0>        -0.4468
     34 C27        -4.0756   -1.5022    2.5209 C.3       1 <0>        -0.1062
     35 C28        -3.0792   -1.5765    3.6805 C.3       1 <0>         0.1080
     36 O2         -2.2087   -0.4419    3.6041 O.3       1 <0>        -0.3621
     37 C29        -1.2992   -0.5010    2.5054 C.3       1 <0>         0.1067
     38 C30        -3.8354   -1.5557    5.0104 C.3       1 <0>        -0.1371
     39 C31        -2.2581   -2.8628    3.5712 C.3       1 <0>        -0.1816
     40 H1          1.0039    1.9031    0.0027 H         1 <0>         0.0714
     41 H2         -0.5459    1.8868   -0.8726 H         1 <0>         0.0628
     42 H3         -0.5289    1.8773    0.9072 H         1 <0>         0.0589
     43 H4          0.5123   -0.3556   -0.8948 H         1 <0>         0.0940
     44 H5          0.5293   -0.3651    0.8851 H         1 <0>         0.0897
     45 H6         -8.1542   -3.0216    1.2219 H         1 <0>         0.2056
     46 H7         -9.2554   -4.3710   -2.8348 H         1 <0>         0.1283
     47 H8         -9.8741   -2.7020   -2.8308 H         1 <0>         0.1278
     48 H9        -11.6211   -4.2956   -4.1235 H         1 <0>         0.4037
     49 H10       -10.8397   -4.6280   -6.9176 H         1 <0>         0.1080
     50 H11       -13.5280   -4.6189   -4.3507 H         1 <0>         0.1190
     51 H12       -15.3027   -6.3236   -4.2642 H         1 <0>         0.1251
     52 H13       -15.4890   -7.9991   -6.0590 H         1 <0>         0.1245
     53 H14       -13.9011   -7.9694   -7.9407 H         1 <0>         0.1263
     54 H15       -12.1315   -6.2596   -8.0314 H         1 <0>         0.1255
     55 H16       -13.0391   -2.4511   -4.8620 H         1 <0>         0.1157
     56 H17       -13.9776   -0.3306   -5.6901 H         1 <0>         0.1220
     57 H18       -13.6707    0.3146   -8.0465 H         1 <0>         0.1224
     58 H19       -12.4246   -1.1603   -9.5746 H         1 <0>         0.1242
     59 H20       -11.4790   -3.2769   -8.7444 H         1 <0>         0.1229
     60 H21        -4.7860   -0.6960    2.7039 H         1 <0>         0.0992
     61 H22        -4.6126   -2.4476    2.4428 H         1 <0>         0.1084
     62 H23        -0.5796   -1.3020    2.6747 H         1 <0>         0.0750
     63 H24        -0.7684    0.4475    2.4244 H         1 <0>         0.1137
     64 H25        -4.5104   -2.4103    5.0579 H         1 <0>         0.0748
     65 H26        -3.1235   -1.6087    5.8340 H         1 <0>         0.0681
     66 H27        -4.4112   -0.6333    5.0866 H         1 <0>         0.0668
     67 H28        -1.7147   -2.8679    2.6263 H         1 <0>         0.0601
     68 H29        -1.5496   -2.9129    4.3980 H         1 <0>         0.0705
     69 H30        -2.9249   -3.7241    3.6115 H         1 <0>         0.0710
@<TRIPOS>BOND
     1    1    2 1
     2    1   40 1
     3    1   41 1
     4    1   42 1
     5    2    3 1
     6    2   43 1
     7    2   44 1
     8    3   33 ar
     9    3    4 ar
    10    4   37 1
    11    4    5 ar
    12    5    6 ar
    13    5   34 1
    14    6   32 ar
    15    6    7 1
    16    7   12 ar
    17    7    8 ar
    18    8    9 ar
    19    8   31 1
    20    9   10 ar
    21    9   13 1
    22   10   11 ar
    23   11   12 ar
    24   11   45 1
    25   13   14 1
    26   14   15 1
    27   14   46 1
    28   14   47 1
    29   15   16 2
    30   15   17 am
    31   17   18 1
    32   17   48 1
    33   18   19 1
    34   18   25 1
    35   18   49 1
    36   19   24 ar
    37   19   20 ar
    38   20   21 ar
    39   20   50 1
    40   21   22 ar
    41   21   51 1
    42   22   23 ar
    43   22   52 1
    44   23   24 ar
    45   23   53 1
    46   24   54 1
    47   25   30 ar
    48   25   26 ar
    49   26   27 ar
    50   26   55 1
    51   27   28 ar
    52   27   56 1
    53   28   29 ar
    54   28   57 1
    55   29   30 ar
    56   29   58 1
    57   30   59 1
    58   31   32 1
    59   32   33 ar
    60   34   35 1
    61   34   60 1
    62   34   61 1
    63   35   36 1
    64   35   38 1
    65   35   39 1
    66   36   37 1
    67   37   62 1
    68   37   63 1
    69   38   64 1
    70   38   65 1
    71   38   66 1
    72   39   67 1
    73   39   68 1
    74   39   69 1
@<TRIPOS>MOLECULE
ZINC09561719
   56    58     0     0     0
SMALL
USER_CHARGES
N-(2-bromo-4-nitro-phenyl)-2-[(1-ethylpyrrolidin-2-yl)methylamino]-2-phenyl-acetamide
@<TRIPOS>ATOM
      1 C1          8.7932    1.0296    1.4122 C.3       1 <0>        -0.1916
      2 C2          7.3013    1.1415    1.7328 C.3       1 <0>        -0.0162
      3 C3          7.7826   -0.0634    3.7989 C.3       1 <0>        -0.0063
      4 C4          6.9342   -0.8792    4.8065 C.3       1 <0>        -0.1481
      5 C5          5.5002   -0.3620    4.5494 C.3       1 <0>        -0.1351
      6 C6          5.5342    0.2273    3.1270 C.3       1 <0>         0.0000
      7 H1          5.3015    1.2916    3.1604 H         1 <0>         0.1680
      8 C7          4.5233   -0.4993    2.2376 C.3       1 <0>        -0.0244
      9 C8          3.7199   -0.7221   -0.0356 C.3       1 <0>         0.0712
     10 H2          3.5719   -1.7465    0.3060 H         1 <0>         0.1853
     11 C9          2.4038    0.0116   -0.0087 C.ar      1 <0>        -0.1713
     12 C10         1.2173   -0.6976   -0.0003 C.ar      1 <0>        -0.0821
     13 C11         0.0100   -0.0246    0.0244 C.ar      1 <0>        -0.0939
     14 C12        -0.0106    1.3575    0.0408 C.ar      1 <0>        -0.0699
     15 C13         1.1759    2.0666    0.0330 C.ar      1 <0>        -0.0926
     16 C14         2.3832    1.3937    0.0082 C.ar      1 <0>        -0.1178
     17 C15         4.2592   -0.7348   -1.4428 C.2       1 <0>         0.5177
     18 O1          5.3347   -0.2289   -1.6847 O.2       1 <0>        -0.5089
     19 N1          3.5464   -1.3083   -2.4325 N.am      1 <0>        -0.6323
     20 C16         4.0016   -1.2379   -3.7541 C.ar      1 <0>         0.1935
     21 C17         5.3634   -1.2719   -4.0238 C.ar      1 <0>        -0.1088
     22 C18         5.8095   -1.2022   -5.3290 C.ar      1 <0>        -0.0197
     23 C19         4.9019   -1.0986   -6.3674 C.ar      1 <0>        -0.0323
     24 C20         3.5452   -1.0649   -6.1030 C.ar      1 <0>        -0.0039
     25 C21         3.0918   -1.1396   -4.7995 C.ar      1 <0>        -0.1159
     26 Br1         1.2359   -1.1013   -4.4390 Br        1 <0>         0.0090
     27 N2          5.3840   -1.0242   -7.7649 N.pl3     1 <0>         0.0174
     28 O2          6.5788   -1.0541   -7.9993 O.2       1 <0>        -0.1347
     29 O3          4.5858   -0.9329   -8.6804 O.3       1 <0>        -0.1324
     30 H3          8.9856    0.0850    0.9035 H         1 <0>         0.0868
     31 H4          9.0892    1.8567    0.7669 H         1 <0>         0.1182
     32 H5          9.3676    1.0674    2.3378 H         1 <0>         0.0936
     33 H6          6.7270    1.1037    0.8072 H         1 <0>         0.1093
     34 H7          7.1089    2.0861    2.2415 H         1 <0>         0.1468
     35 H8          7.9962    0.9306    4.1920 H         1 <0>         0.1460
     36 H9          8.7077   -0.5885    3.5611 H         1 <0>         0.1515
     37 H10         7.2426   -0.6680    5.8304 H         1 <0>         0.1309
     38 H11         7.0034   -1.9461    4.5940 H         1 <0>         0.1059
     39 H12         5.2414    0.4109    5.2730 H         1 <0>         0.1247
     40 H13         4.7852   -1.1831    4.6017 H         1 <0>         0.1179
     41 H14         3.5127   -0.2802    2.5822 H         1 <0>         0.1847
     42 H15         4.7000   -1.5736    2.2894 H         1 <0>         0.1642
     43 H16         1.2334   -1.7774   -0.0136 H         1 <0>         0.1410
     44 H17        -0.9170   -0.5787    0.0305 H         1 <0>         0.1476
     45 H18        -0.9539    1.8833    0.0553 H         1 <0>         0.1463
     46 H19         1.1598    3.1464    0.0456 H         1 <0>         0.1444
     47 H20         3.3102    1.9477    0.0021 H         1 <0>         0.1186
     48 H21         2.7179   -1.7698   -2.2288 H         1 <0>         0.4290
     49 H22         6.0729   -1.3531   -3.2137 H         1 <0>         0.1680
     50 H23         6.8685   -1.2290   -5.5391 H         1 <0>         0.1728
     51 H24         2.8390   -0.9844   -6.9161 H         1 <0>         0.1775
     52 N3          6.8924    0.0147    2.6278 N.4       1 <0>        -0.4151
     53 H25         6.9347   -0.8656    2.1010 H         1 <0>         0.4228
     54 N4          4.6837   -0.0369    0.8461 N.4       1 <0>        -0.5243
     55 H26         5.6384   -0.2424    0.5288 H         1 <0>         0.4256
     56 H27         4.5199    0.9759    0.8047 H         1 <0>         0.4412
@<TRIPOS>BOND
     1    1    2 1
     2    1   30 1
     3    1   31 1
     4    1   32 1
     5    2   33 1
     6    2   34 1
     7    2   52 1
     8    3    4 1
     9    3   35 1
    10    3   36 1
    11    3   52 1
    12    4    5 1
    13    4   37 1
    14    4   38 1
    15    5    6 1
    16    5   39 1
    17    5   40 1
    18    6    7 1
    19    6    8 1
    20    6   52 1
    21    8   41 1
    22    8   42 1
    23    8   54 1
    24    9   10 1
    25    9   11 1
    26    9   17 1
    27    9   54 1
    28   11   16 ar
    29   11   12 ar
    30   12   13 ar
    31   12   43 1
    32   13   14 ar
    33   13   44 1
    34   14   15 ar
    35   14   45 1
    36   15   16 ar
    37   15   46 1
    38   16   47 1
    39   17   18 2
    40   17   19 am
    41   19   20 1
    42   19   48 1
    43   20   25 ar
    44   20   21 ar
    45   21   22 ar
    46   21   49 1
    47   22   23 ar
    48   22   50 1
    49   23   24 ar
    50   23   27 1
    51   24   25 ar
    52   24   51 1
    53   25   26 1
    54   27   28 2
    55   27   29 1
    56   52   53 1
    57   54   55 1
    58   54   56 1
@<TRIPOS>MOLECULE
ZINC39663980
   79    83     0     0     0
SMALL
USER_CHARGES

@<TRIPOS>ATOM
      1 C1         -0.2843    1.3999   -0.4075 C.3       1 <0>        -0.1270
      2 C2         -0.1843   -0.1000   -0.3012 C.ar      1 <0>        -0.0470
      3 C3         -0.6581   -0.8964   -1.3286 C.ar      1 <0>        -0.1251
      4 C4         -0.5696   -2.2701   -1.2375 C.ar      1 <0>        -0.0511
      5 C5         -0.0006   -2.8562   -0.1057 C.ar      1 <0>        -0.1462
      6 C6          0.4754   -2.0470    0.9271 C.ar      1 <0>        -0.0951
      7 C7          0.3860   -0.6744    0.8209 C.ar      1 <0>        -0.1297
      8 C8          0.0970   -4.3277   -0.0012 C.2       1 <0>         0.5959
      9 O1          0.0496   -5.0127   -1.0042 O.2       1 <0>        -0.5246
     10 N1          0.2386   -4.9096    1.2062 N.am      1 <0>        -0.6166
     11 C9          0.1893   -4.2617    2.5381 C.3       1 <0>         0.1041
     12 C10        -0.5745   -5.2643    3.4319 C.3       1 <0>        -0.1133
     13 H1         -0.1491   -5.2788    4.4353 H         1 <0>         0.1185
     14 C11        -0.3793   -6.6277    2.7477 C.3       1 <0>        -0.0731
     15 C12         0.4725   -6.3433    1.5022 C.3       1 <0>         0.1054
     16 C13        -1.7278   -7.2100    2.3354 C.3       1 <0>        -0.1436
     17 C14        -1.5122   -8.5907    1.7092 C.3       1 <0>        -0.0110
     18 N2         -0.8519   -9.4723    2.6795 N.4       1 <0>        -0.5042
     19 C15         0.4831   -8.9532    3.0004 C.3       1 <0>        -0.0122
     20 C16         0.3520   -7.5878    3.6810 C.3       1 <0>        -0.1328
     21 C17        -2.0377   -4.9078    3.4885 C.2       1 <0>         0.5227
     22 O2         -2.5810   -4.4205    2.5198 O.2       1 <0>        -0.4993
     23 N3         -2.7424   -5.1304    4.6155 N.am      1 <0>        -0.7268
     24 C18        -4.1648   -4.7838    4.6705 C.3       1 <0>         0.1030
     25 C19        -4.7506   -5.2442    6.0068 C.3       1 <0>         0.0825
     26 H2         -4.5473   -6.3060    6.1461 H         1 <0>         0.1426
     27 C20        -4.1194   -4.4605    7.1287 C.ar      1 <0>        -0.1946
     28 C21        -4.5677   -3.1846    7.4167 C.ar      1 <0>        -0.0731
     29 C22        -3.9904   -2.4640    8.4442 C.ar      1 <0>        -0.1347
     30 C23        -2.9605   -3.0217    9.1878 C.ar      1 <0>         0.1684
     31 C24        -2.5129   -4.3023    8.8971 C.ar      1 <0>        -0.1993
     32 C25        -3.0969   -5.0208    7.8719 C.ar      1 <0>        -0.0512
     33 O3         -2.3907   -2.3146   10.1988 O.3       1 <0>        -0.3038
     34 C26        -1.3355   -2.9518   10.9218 C.3       1 <0>         0.0205
     35 N4         -6.2022   -5.0193    6.0086 N.4       1 <0>        -0.3910
     36 C27        -6.8602   -5.9127    5.0212 C.3       1 <0>        -0.0086
     37 C28        -8.3245   -5.9787    5.5234 C.3       1 <0>        -0.1448
     38 C29        -8.1624   -5.9918    7.0607 C.3       1 <0>        -0.1449
     39 C30        -6.7730   -5.3822    7.3239 C.3       1 <0>        -0.0029
     40 H3          0.6134    1.7908   -0.8867 H         1 <0>         0.0817
     41 H4         -1.1583    1.6645   -1.0026 H         1 <0>         0.0739
     42 H5         -0.3801    1.8293    0.5897 H         1 <0>         0.0719
     43 H6         -1.0985   -0.4417   -2.2036 H         1 <0>         0.1349
     44 H7         -0.9401   -2.8907   -2.0400 H         1 <0>         0.1349
     45 H8          0.9168   -2.4943    1.8055 H         1 <0>         0.1310
     46 H9          0.7579   -0.0470    1.6174 H         1 <0>         0.1307
     47 H10         1.1974   -4.1028    2.9210 H         1 <0>         0.0951
     48 H11        -0.3499   -3.3161    2.4810 H         1 <0>         0.1083
     49 H12         0.1433   -6.9626    0.6678 H         1 <0>         0.0916
     50 H13         1.5265   -6.5207    1.7162 H         1 <0>         0.0879
     51 H14        -2.3671   -7.3044    3.2132 H         1 <0>         0.0873
     52 H15        -2.2019   -6.5507    1.6084 H         1 <0>         0.1252
     53 H16        -2.4756   -9.0165    1.4285 H         1 <0>         0.1389
     54 H17        -0.8862   -8.4934    0.8222 H         1 <0>         0.1379
     55 H18        -1.4053   -9.5174    3.5220 H         1 <0>         0.4243
     56 H19         0.9904   -9.6462    3.6716 H         1 <0>         0.1429
     57 H20         1.0618   -8.8475    2.0828 H         1 <0>         0.1361
     58 H21         1.3443   -7.1948    3.9026 H         1 <0>         0.1244
     59 H22        -0.2125   -7.6955    4.6072 H         1 <0>         0.0947
     60 H23        -2.3079   -5.5201    5.3903 H         1 <0>         0.4046
     61 H24        -4.2795   -3.7040    4.5763 H         1 <0>         0.0931
     62 H25        -4.6909   -5.2778    3.8537 H         1 <0>         0.0931
     63 H26        -5.3695   -2.7509    6.8375 H         1 <0>         0.1254
     64 H27        -4.3404   -1.4672    8.6683 H         1 <0>         0.1468
     65 H28        -1.7112   -4.7386    9.4745 H         1 <0>         0.1433
     66 H29        -2.7518   -6.0193    7.6481 H         1 <0>         0.1303
     67 H30        -0.9703   -2.2802   11.6988 H         1 <0>         0.1146
     68 H31        -1.7099   -3.8675   11.3794 H         1 <0>         0.0637
     69 H32        -0.5214   -3.1937   10.2385 H         1 <0>         0.0626
     70 H33        -6.8154   -5.4805    4.0216 H         1 <0>         0.1371
     71 H34        -6.4040   -6.9026    5.0343 H         1 <0>         0.1324
     72 H35        -8.8825   -5.0994    5.2018 H         1 <0>         0.1017
     73 H36        -8.8096   -6.8920    5.1789 H         1 <0>         0.1194
     74 H37        -8.9370   -5.3836    7.5280 H         1 <0>         0.1088
     75 H38        -8.2046   -7.0139    7.4370 H         1 <0>         0.1053
     76 H39        -6.1335   -6.1146    7.8168 H         1 <0>         0.1307
     77 H40        -6.8697   -4.4919    7.9452 H         1 <0>         0.1334
     78 H41        -6.4054   -4.0542    5.7956 H         1 <0>         0.4270
     79 H42        -0.7659  -10.3978    2.2869 H         1 <0>         0.4375
@<TRIPOS>BOND
     1    1    2 1
     2    1   40 1
     3    1   41 1
     4    1   42 1
     5    2    7 ar
     6    2    3 ar
     7    3    4 ar
     8    3   43 1
     9    4    5 ar
    10    4   44 1
    11    5    6 ar
    12    5    8 1
    13    6    7 ar
    14    6   45 1
    15    7   46 1
    16    8    9 2
    17    8   10 am
    18   10   15 1
    19   10   11 1
    20   11   12 1
    21   11   47 1
    22   11   48 1
    23   12   13 1
    24   12   14 1
    25   12   21 1
    26   14   20 1
    27   14   15 1
    28   14   16 1
    29   15   49 1
    30   15   50 1
    31   16   17 1
    32   16   51 1
    33   16   52 1
    34   17   18 1
    35   17   53 1
    36   17   54 1
    37   18   19 1
    38   18   55 1
    39   18   79 1
    40   19   20 1
    41   19   56 1
    42   19   57 1
    43   20   58 1
    44   20   59 1
    45   21   22 2
    46   21   23 am
    47   23   24 1
    48   23   60 1
    49   24   25 1
    50   24   61 1
    51   24   62 1
    52   25   26 1
    53   25   27 1
    54   25   35 1
    55   27   32 ar
    56   27   28 ar
    57   28   29 ar
    58   28   63 1
    59   29   30 ar
    60   29   64 1
    61   30   31 ar
    62   30   33 1
    63   31   32 ar
    64   31   65 1
    65   32   66 1
    66   33   34 1
    67   34   67 1
    68   34   68 1
    69   34   69 1
    70   35   39 1
    71   35   36 1
    72   35   78 1
    73   36   37 1
    74   36   70 1
    75   36   71 1
    76   37   38 1
    77   37   72 1
    78   37   73 1
    79   38   39 1
    80   38   74 1
    81   38   75 1
    82   39   76 1
    83   39   77 1
@<TRIPOS>MOLECULE
ZINC39674725
   71    75     0     0     0
SMALL
USER_CHARGES

@<TRIPOS>ATOM
      1 C1         -0.0509    1.2119   -0.5590 C.3       1 <0>        -0.1261
      2 C2         -0.0475   -0.2908   -0.4455 C.ar      1 <0>        -0.0828
      3 C3          0.5300   -0.8971    0.6558 C.ar      1 <0>        -0.0996
      4 C4          0.5371   -2.2721    0.7661 C.ar      1 <0>        -0.1055
      5 C5         -0.0404   -3.0537   -0.2361 C.ar      1 <0>        -0.1154
      6 C6         -0.6221   -2.4381   -1.3449 C.ar      1 <0>        -0.0888
      7 C7         -0.6276   -1.0594   -1.4416 C.ar      1 <0>         0.0969
      8 F1         -1.1950   -0.4604   -2.5114 F         1 <0>        -0.1265
      9 C8         -0.0352   -4.5279   -0.1233 C.2       1 <0>         0.5968
     10 O1         -0.1666   -5.2140   -1.1180 O.2       1 <0>        -0.5199
     11 N1          0.1154   -5.1110    1.0824 N.am      1 <0>        -0.6157
     12 C9          0.1574   -4.4540    2.4101 C.3       1 <0>         0.1022
     13 C10        -0.6335   -5.4016    3.3397 C.3       1 <0>        -0.1146
     14 H1         -0.1720   -5.4374    4.3266 H         1 <0>         0.1219
     15 C11        -0.5502   -6.7783    2.6594 C.3       1 <0>        -0.0735
     16 C12         0.2698   -6.5550    1.3806 C.3       1 <0>         0.1057
     17 C13        -1.9473   -7.2768    2.3026 C.3       1 <0>        -0.1451
     18 C14        -1.8427   -8.6717    1.6795 C.3       1 <0>        -0.0108
     19 N2         -1.2026   -9.5879    2.6312 N.4       1 <0>        -0.5042
     20 C15         0.1735   -9.1522    2.8978 C.3       1 <0>        -0.0122
     21 C16         0.1542   -7.7775    3.5721 C.3       1 <0>        -0.1326
     22 C17        -2.0681   -4.9533    3.4484 C.2       1 <0>         0.5199
     23 O2         -2.5959   -4.3789    2.5198 O.2       1 <0>        -0.5043
     24 N3         -2.7646   -5.1908    4.5775 N.am      1 <0>        -0.7348
     25 C18        -4.1593   -4.7550    4.6832 C.3       1 <0>         0.0982
     26 C19        -4.7128   -5.1444    6.0554 C.3       1 <0>        -0.1041
     27 C20        -6.1475   -4.6961    6.1640 C.2       1 <0>         0.0775
     28 C21        -6.8753   -4.0516    5.2166 C.ar      1 <0>        -0.1598
     29 C22        -6.5495   -3.6172    3.9049 C.ar      1 <0>        -0.0103
     30 C23        -7.4918   -2.9725    3.1375 C.ar      1 <0>        -0.0117
     31 C24        -8.8366   -2.7197    3.6433 C.ar      1 <0>         0.0561
     32 C25        -9.2028   -3.1101    4.8816 C.ar      1 <0>        -0.1758
     33 C26        -8.2359   -3.8020    5.7415 C.ar      1 <0>         0.3410
     34 N4         -8.3471   -4.2708    6.9605 N.pl3     1 <0>        -0.5672
     35 C27        -7.0699   -4.8788    7.3478 C.3       1 <0>         0.0951
     36 H2         -7.2048   -5.9397    7.5587 H         1 <0>         0.1800
     37 C28        -6.5003   -4.1647    8.5752 C.3       1 <0>        -0.1591
     38 C29        -7.1458   -2.5407    1.8167 C.1       1 <0>         0.2151
     39 N5         -6.8713   -2.1982    0.7689 N.1       1 <0>        -0.3443
     40 H3         -0.9509    1.6097   -0.0901 H         1 <0>         0.0820
     41 H4          0.8288    1.6161   -0.0582 H         1 <0>         0.0807
     42 H5         -0.0330    1.4968   -1.6110 H         1 <0>         0.0783
     43 H6          0.9767   -0.2923    1.4311 H         1 <0>         0.1426
     44 H7          0.9891   -2.7434    1.6263 H         1 <0>         0.1393
     45 H8         -1.0705   -3.0373   -2.1236 H         1 <0>         0.1475
     46 H9          1.1872   -4.3569    2.7536 H         1 <0>         0.0967
     47 H10        -0.3232   -3.4767    2.3659 H         1 <0>         0.1088
     48 H11        -0.1289   -7.1569    0.5640 H         1 <0>         0.0916
     49 H12         1.3180   -6.7972    1.5563 H         1 <0>         0.0894
     50 H13        -2.5575   -7.3259    3.2044 H         1 <0>         0.0909
     51 H14        -2.4064   -6.5929    1.5887 H         1 <0>         0.1229
     52 H15        -2.8408   -9.0375    1.4385 H         1 <0>         0.1385
     53 H16        -1.2459   -8.6188    0.7689 H         1 <0>         0.1371
     54 H17        -1.7254   -9.5934    3.4942 H         1 <0>         0.4252
     55 H18         0.6614   -9.8721    3.5548 H         1 <0>         0.1428
     56 H19         0.7225   -9.0881    1.9583 H         1 <0>         0.1353
     57 H20         1.1769   -7.4467    3.7532 H         1 <0>         0.1245
     58 H21        -0.3803   -7.8444    4.5197 H         1 <0>         0.0967
     59 H22        -2.3425   -5.6502    5.3202 H         1 <0>         0.4057
     60 H23        -4.2119   -3.6728    4.5640 H         1 <0>         0.0884
     61 H24        -4.7502   -5.2355    3.9034 H         1 <0>         0.0851
     62 H25        -4.6603   -6.2266    6.1745 H         1 <0>         0.1314
     63 H26        -4.1219   -4.6639    6.8352 H         1 <0>         0.1357
     64 H27        -5.5602   -3.7928    3.5089 H         1 <0>         0.1753
     65 H28        -9.5522   -2.2103    3.0149 H         1 <0>         0.1759
     66 H29       -10.2031   -2.9141    5.2385 H         1 <0>         0.1778
     67 H30        -6.3993   -3.1005    8.3621 H         1 <0>         0.0860
     68 H31        -7.1734   -4.3035    9.4213 H         1 <0>         0.1008
     69 H32        -5.5224   -4.5813    8.8168 H         1 <0>         0.1081
     70 H33        -9.1431   -4.2268    7.5130 H         1 <0>         0.4604
     71 H34        -1.1899  -10.5191    2.2429 H         1 <0>         0.4371
@<TRIPOS>BOND
     1    1    2 1
     2    1   40 1
     3    1   41 1
     4    1   42 1
     5    2    7 ar
     6    2    3 ar
     7    3    4 ar
     8    3   43 1
     9    4    5 ar
    10    4   44 1
    11    5    6 ar
    12    5    9 1
    13    6    7 ar
    14    6   45 1
    15    7    8 1
    16    9   10 2
    17    9   11 am
    18   11   16 1
    19   11   12 1
    20   12   13 1
    21   12   46 1
    22   12   47 1
    23   13   14 1
    24   13   15 1
    25   13   22 1
    26   15   21 1
    27   15   16 1
    28   15   17 1
    29   16   48 1
    30   16   49 1
    31   17   18 1
    32   17   50 1
    33   17   51 1
    34   18   19 1
    35   18   52 1
    36   18   53 1
    37   19   20 1
    38   19   54 1
    39   19   71 1
    40   20   21 1
    41   20   55 1
    42   20   56 1
    43   21   57 1
    44   21   58 1
    45   22   23 2
    46   22   24 am
    47   24   25 1
    48   24   59 1
    49   25   26 1
    50   25   60 1
    51   25   61 1
    52   26   27 1
    53   26   62 1
    54   26   63 1
    55   27   35 1
    56   27   28 2
    57   28   33 ar
    58   28   29 ar
    59   29   30 ar
    60   29   64 1
    61   30   31 ar
    62   30   38 1
    63   31   32 ar
    64   31   65 1
    65   32   33 ar
    66   32   66 1
    67   33   34 2
    68   34   35 1
    69   34   70 1
    70   35   36 1
    71   35   37 1
    72   37   67 1
    73   37   68 1
    74   37   69 1
    75   38   39 3
@<TRIPOS>MOLECULE
ZINC39675923
   68    71     0     0     0
SMALL
USER_CHARGES

@<TRIPOS>ATOM
      1 C1         -0.0614    1.4980    0.0835 C.3       1 <0>        -0.1102
      2 C2          0.0062   -0.0056    0.0080 C.2       1 <0>        -0.0107
      3 C3          0.0878   -0.6742   -1.1899 C.2       1 <0>        -0.1848
      4 C4          0.1460   -2.0289   -1.1860 C.2       1 <0>        -0.2115
      5 S1          0.0917   -2.4387    0.4424 S.3       1 <0>         0.1883
      6 C5         -0.0043   -0.8022    1.1428 C.2       1 <0>        -0.2785
      7 C6         -0.0772   -0.4028    2.5513 C.2       1 <0>         0.6432
      8 O1         -0.0586    0.7765    2.8512 O.2       1 <0>        -0.5138
      9 N1         -0.1649   -1.3417    3.5143 N.am      1 <0>        -0.6195
     10 C7         -0.0836   -2.8131    3.3583 C.3       1 <0>         0.1103
     11 C8          0.7315   -3.2909    4.5809 C.3       1 <0>        -0.1100
     12 H1          0.3412   -4.2392    4.9503 H         1 <0>         0.1212
     13 C9          0.5419   -2.1869    5.6347 C.3       1 <0>        -0.0735
     14 C10        -0.3580   -1.1354    4.9697 C.3       1 <0>         0.1088
     15 C11         1.8875   -1.5668    5.9985 C.3       1 <0>        -0.1442
     16 C12         1.6799   -0.5119    7.0888 C.3       1 <0>        -0.0109
     17 N2          1.0721   -1.1385    8.2690 N.4       1 <0>        -0.5045
     18 C13        -0.2618   -1.6508    7.9330 C.3       1 <0>        -0.0122
     19 C14        -0.1364   -2.7537    6.8781 C.3       1 <0>        -0.1330
     20 C15         2.1879   -3.4293    4.2189 C.2       1 <0>         0.5220
     21 O2          2.6909   -2.6629    3.4249 O.2       1 <0>        -0.4977
     22 N3          2.9313   -4.4049    4.7775 N.am      1 <0>        -0.7270
     23 C16         4.3470   -4.5395    4.4257 C.3       1 <0>         0.1009
     24 C17         4.9839   -5.6347    5.2834 C.3       1 <0>         0.0692
     25 H2          4.8099   -5.4180    6.3374 H         1 <0>         0.1461
     26 C18         4.3688   -6.9660    4.9362 C.ar      1 <0>        -0.1489
     27 C19         4.7945   -7.6524    3.8144 C.ar      1 <0>        -0.1195
     28 C20         4.2304   -8.8736    3.4959 C.ar      1 <0>        -0.0962
     29 C21         3.2409   -9.4085    4.2994 C.ar      1 <0>        -0.0850
     30 C22         2.8158   -8.7224    5.4217 C.ar      1 <0>        -0.1010
     31 C23         3.3830   -7.5033    5.7426 C.ar      1 <0>        -0.0967
     32 N4          6.4292   -5.6807    5.0250 N.4       1 <0>        -0.3825
     33 C24         7.0468   -4.4250    5.4719 C.3       1 <0>        -0.0552
     34 C25         7.0223   -6.8065    5.7591 C.3       1 <0>        -0.0508
     35 H3          0.9483    1.9045    0.1421 H         1 <0>         0.0797
     36 H4         -0.5577    1.8846   -0.8066 H         1 <0>         0.0729
     37 H5         -0.6236    1.7923    0.9698 H         1 <0>         0.0863
     38 H6          0.1051   -0.1282   -2.1216 H         1 <0>         0.1436
     39 H7          0.2117   -2.6927   -2.0353 H         1 <0>         0.1912
     40 H8         -1.0812   -3.2524    3.3715 H         1 <0>         0.0996
     41 H9          0.4331   -3.0693    2.4334 H         1 <0>         0.0973
     42 H10        -0.0446   -0.1316    5.2565 H         1 <0>         0.0936
     43 H11        -1.4000   -1.3022    5.2426 H         1 <0>         0.0900
     44 H12         2.5584   -2.3431    6.3663 H         1 <0>         0.0875
     45 H13         2.3223   -1.0974    5.1160 H         1 <0>         0.1259
     46 H14         2.6419   -0.0785    7.3627 H         1 <0>         0.1390
     47 H15         1.0219    0.2724    6.7147 H         1 <0>         0.1382
     48 H16         1.6549   -1.9007    8.5811 H         1 <0>         0.4244
     49 H17        -0.7310   -2.0571    8.8291 H         1 <0>         0.1433
     50 H18        -0.8738   -0.8395    7.5391 H         1 <0>         0.1364
     51 H19        -1.1286   -3.1210    6.6160 H         1 <0>         0.1253
     52 H20         0.4617   -3.5729    7.2774 H         1 <0>         0.0955
     53 H21         2.5290   -5.0179    5.4126 H         1 <0>         0.4058
     54 H22         4.4359   -4.8052    3.3723 H         1 <0>         0.0944
     55 H23         4.8578   -3.5936    4.6061 H         1 <0>         0.0962
     56 H24         5.5676   -7.2346    3.1866 H         1 <0>         0.1206
     57 H25         4.5625   -9.4096    2.6190 H         1 <0>         0.1396
     58 H26         2.7997  -10.3622    4.0501 H         1 <0>         0.1399
     59 H27         2.0425   -9.1401    6.0493 H         1 <0>         0.1393
     60 H28         3.0535   -6.9690    6.6215 H         1 <0>         0.1288
     61 H29         6.5522   -3.5839    4.9860 H         1 <0>         0.1245
     62 H30         6.9419   -4.3331    6.5529 H         1 <0>         0.1252
     63 H31         8.1044   -4.4262    5.2082 H         1 <0>         0.1343
     64 H32         6.5641   -7.7382    5.4276 H         1 <0>         0.1279
     65 H33         8.0948   -6.8406    5.5674 H         1 <0>         0.1318
     66 H34         6.8481   -6.6758    6.8272 H         1 <0>         0.1244
     67 H35         0.9924   -0.4554    9.0073 H         1 <0>         0.4377
     68 H36         6.5904   -5.8016    4.0363 H         1 <0>         0.4277
@<TRIPOS>BOND
     1    1    2 1
     2    1   35 1
     3    1   36 1
     4    1   37 1
     5    2    6 2
     6    2    3 1
     7    3    4 2
     8    3   38 1
     9    4    5 1
    10    4   39 1
    11    5    6 1
    12    6    7 1
    13    7    8 2
    14    7    9 am
    15    9   14 1
    16    9   10 1
    17   10   11 1
    18   10   40 1
    19   10   41 1
    20   11   12 1
    21   11   13 1
    22   11   20 1
    23   13   19 1
    24   13   14 1
    25   13   15 1
    26   14   42 1
    27   14   43 1
    28   15   16 1
    29   15   44 1
    30   15   45 1
    31   16   17 1
    32   16   46 1
    33   16   47 1
    34   17   18 1
    35   17   48 1
    36   17   67 1
    37   18   19 1
    38   18   49 1
    39   18   50 1
    40   19   51 1
    41   19   52 1
    42   20   21 2
    43   20   22 am
    44   22   23 1
    45   22   53 1
    46   23   24 1
    47   23   54 1
    48   23   55 1
    49   24   25 1
    50   24   26 1
    51   24   32 1
    52   26   31 ar
    53   26   27 ar
    54   27   28 ar
    55   27   56 1
    56   28   29 ar
    57   28   57 1
    58   29   30 ar
    59   29   58 1
    60   30   31 ar
    61   30   59 1
    62   31   60 1
    63   32   33 1
    64   32   34 1
    65   32   68 1
    66   33   61 1
    67   33   62 1
    68   33   63 1
    69   34   64 1
    70   34   65 1
    71   34   66 1
@<TRIPOS>MOLECULE
ZINC63513847
   52    56     0     0     0
SMALL
USER_CHARGES

@<TRIPOS>ATOM
      1 C1         -0.0163    1.3482    0.0095 C.ar      1 <0>        -0.1415
      2 C2          1.1658    2.1014    0.0022 C.ar      1 <0>         0.0531
      3 C3          2.3912    1.5352   -0.0125 C.ar      1 <0>        -0.2056
      4 C4          2.5288    0.1198   -0.0218 C.ar      1 <0>         0.3287
      5 N1          3.5868   -0.6543   -0.0369 N.pl3     1 <0>        -0.5796
      6 C5          3.1432   -2.0528   -0.0408 C.3       1 <0>         0.0607
      7 C6          1.6315   -2.0084   -0.0255 C.2       1 <0>         0.0570
      8 C7          1.2951   -0.6984   -0.0144 C.ar      1 <0>        -0.1585
      9 C8          0.0021   -0.0041    0.0020 C.ar      1 <0>        -0.0236
     10 C9          0.6905   -3.1856   -0.0239 C.3       1 <0>        -0.1023
     11 C10         0.4565   -3.6534   -1.4617 C.3       1 <0>         0.1212
     12 N2         -0.4583   -4.7977   -1.4602 N.am      1 <0>        -0.7154
     13 C11        -0.8107   -5.3803   -2.6233 C.2       1 <0>         0.5077
     14 O1         -0.3706   -4.9572   -3.6712 O.2       1 <0>        -0.5147
     15 C12        -1.7517   -6.5574   -2.6217 C.3       1 <0>         0.0902
     16 H1         -1.3351   -7.3758   -2.0345 H         1 <0>         0.1740
     17 C13        -3.1023   -6.1524   -2.0783 C.2       1 <0>        -0.2185
     18 C14        -3.9982   -6.3581   -3.0685 C.2       1 <0>         0.2688
     19 N3         -5.3367   -6.1426   -3.0568 N.pl3     1 <0>        -0.5206
     20 C15        -6.0765   -6.3994   -4.1199 C.2       1 <0>         0.4519
     21 C16        -5.4422   -6.9251   -5.3301 C.2       1 <0>        -0.2302
     22 C17        -4.1120   -7.1354   -5.3306 C.2       1 <0>         0.2352
     23 N4         -3.3745   -6.8554   -4.2026 N.pl3     1 <0>        -0.3519
     24 N5         -2.0242   -6.9999   -4.0000 N.3       1 <0>        -0.3836
     25 C18        -3.4329   -7.6762   -6.5624 C.3       1 <0>         0.3851
     26 F1         -4.3841   -7.8799   -7.5679 F         1 <0>        -0.1253
     27 F2         -2.4738   -6.7597   -7.0066 F         1 <0>        -0.1357
     28 Cl1        -2.6307   -9.2420   -6.1680 Cl        1 <0>        -0.0389
     29 C19        -7.5282   -6.1595   -4.0884 C.2       1 <0>        -0.1098
     30 C20        -8.4000   -6.3875   -5.1117 C.2       1 <0>        -0.0262
     31 C21        -9.6748   -6.0206   -4.6463 C.2       1 <0>        -0.2249
     32 C22        -9.5245   -5.5907   -3.3756 C.2       1 <0>         0.0931
     33 O2         -8.2291   -5.6815   -3.0407 O.3       1 <0>        -0.1692
     34 H2         -0.9665    1.8612    0.0259 H         1 <0>         0.1588
     35 H3          1.0933    3.1789    0.0083 H         1 <0>         0.1638
     36 H4          3.2717    2.1606   -0.0175 H         1 <0>         0.1637
     37 H5          3.4952   -2.5561   -0.9413 H         1 <0>         0.1747
     38 H6          3.5129   -2.5667    0.8465 H         1 <0>         0.1767
     39 H7         -0.9210   -0.5647    0.0081 H         1 <0>         0.1580
     40 H8          1.1268   -3.9987    0.5563 H         1 <0>         0.1216
     41 H9         -0.2596   -2.8905    0.4214 H         1 <0>         0.1160
     42 H10         0.0203   -2.8403   -2.0419 H         1 <0>         0.0842
     43 H11         1.4067   -3.9484   -1.9070 H         1 <0>         0.0868
     44 H12        -0.8103   -5.1361   -0.6220 H         1 <0>         0.4129
     45 H13        -3.3112   -5.7724   -1.0892 H         1 <0>         0.2000
     46 H14        -6.0319   -7.1412   -6.2087 H         1 <0>         0.2175
     47 H15        -1.4976   -6.4544   -4.6657 H         1 <0>         0.3869
     48 H16        -8.1579   -6.7749   -6.0903 H         1 <0>         0.1843
     49 H17       -10.6000   -6.0728   -5.2010 H         1 <0>         0.1850
     50 H18       -10.3172   -5.2366   -2.7332 H         1 <0>         0.2381
     51 H19         4.5087   -0.3528   -0.0446 H         1 <0>         0.4587
     52 H20        -5.7574   -5.7946   -2.2550 H         1 <0>         0.4616
@<TRIPOS>BOND
     1    1    9 ar
     2    1    2 ar
     3    1   34 1
     4    2    3 ar
     5    2   35 1
     6    3    4 ar
     7    3   36 1
     8    4    8 ar
     9    4    5 2
    10    5    6 1
    11    5   51 1
    12    6    7 1
    13    6   37 1
    14    6   38 1
    15    7    8 2
    16    7   10 1
    17    8    9 ar
    18    9   39 1
    19   10   11 1
    20   10   40 1
    21   10   41 1
    22   11   12 1
    23   11   42 1
    24   11   43 1
    25   12   13 am
    26   12   44 1
    27   13   14 2
    28   13   15 1
    29   15   16 1
    30   15   24 1
    31   15   17 1
    32   17   18 2
    33   17   45 1
    34   18   23 1
    35   18   19 1
    36   19   20 2
    37   19   52 1
    38   20   21 1
    39   20   29 1
    40   21   22 2
    41   21   46 1
    42   22   23 1
    43   22   25 1
    44   23   24 1
    45   24   47 1
    46   25   26 1
    47   25   27 1
    48   25   28 1
    49   29   33 1
    50   29   30 2
    51   30   31 1
    52   30   48 1
    53   31   32 2
    54   31   49 1
    55   32   33 1
    56   32   50 1
@<TRIPOS>MOLECULE
ZINC14881034
   75    78     0     0     0
SMALL
USER_CHARGES
(5S)-5-[1-[[(1R)-1-cyclohex-3-enyl]methyl]-4-piperidyl]-3-(3-dimethylaminopropyl)-5-[(4-fluorophenyl)methyl]imidazolidine-2,4-dione
@<TRIPOS>ATOM
      1 C1          0.1313    0.2794    0.3235 C.3       1 <0>        -0.0435
      2 C2          1.4505    2.3071    0.2219 C.3       1 <0>        -0.0491
      3 C3         -0.7041    2.2082   -0.8782 C.3       1 <0>        -0.0015
      4 C4         -0.9296    3.7174   -0.7671 C.3       1 <0>        -0.1742
      5 C5         -1.7602    4.1981   -1.9588 C.3       1 <0>         0.1227
      6 N1         -1.9762    5.6432   -1.8524 N.am      1 <0>        -0.5738
      7 C6         -3.0261    6.2074   -1.2235 C.2       1 <0>         0.5352
      8 O1         -3.9355    5.6367   -0.6605 O.2       1 <0>        -0.4572
      9 C7         -2.8324    7.7042   -1.3649 C.3       1 <0>         0.1346
     10 N2         -1.5823    7.8202   -2.1356 N.am      1 <0>        -0.7143
     11 C8         -1.1585    6.5656   -2.3725 C.2       1 <0>         0.7018
     12 O2         -0.1459    6.2998   -2.9899 O.2       1 <0>        -0.5201
     13 C9         -2.6819    8.3638    0.0074 C.3       1 <0>        -0.0790
     14 C10        -1.4852    7.7828    0.7154 C.ar      1 <0>        -0.1168
     15 C11        -1.6342    6.6740    1.5275 C.ar      1 <0>        -0.0880
     16 C12        -0.5366    6.1375    2.1735 C.ar      1 <0>        -0.1612
     17 C13         0.7108    6.7173    2.0156 C.ar      1 <0>         0.1084
     18 C14         0.8579    7.8310    1.2062 C.ar      1 <0>        -0.1463
     19 C15        -0.2402    8.3626    0.5570 C.ar      1 <0>        -0.0668
     20 F1          1.7837    6.1965    2.6503 F         1 <0>        -0.1328
     21 C16        -3.9997    8.3233   -2.1363 C.3       1 <0>        -0.0954
     22 C17        -5.2629    8.2831   -1.2718 C.3       1 <0>        -0.1538
     23 C18        -6.4402    8.8463   -2.0712 C.3       1 <0>        -0.0088
     24 C19        -5.4497    8.1140   -4.1581 C.3       1 <0>         0.0034
     25 C20        -4.2431    7.5275   -3.4216 C.3       1 <0>        -0.1520
     26 C21        -7.8387    8.4770   -4.0125 C.3       1 <0>        -0.0018
     27 C22        -9.0304    8.4883   -3.0530 C.3       1 <0>        -0.1176
     28 H1         -8.8231    9.1591   -2.2192 H         1 <0>         0.1001
     29 C23        -9.2801    7.0703   -2.5241 C.3       1 <0>        -0.1289
     30 C24       -10.3552    7.1412   -1.4376 C.3       1 <0>        -0.0921
     31 C25       -11.5344    7.9293   -1.9279 C.2       1 <0>        -0.1536
     32 C26       -11.5024    8.7219   -2.9508 C.2       1 <0>        -0.1596
     33 C27       -10.2842    8.9557   -3.7954 C.3       1 <0>        -0.0810
     34 H2          0.7280   -0.0353    1.1797 H         1 <0>         0.1263
     35 H3         -0.8830   -0.1066    0.4260 H         1 <0>         0.1232
     36 H4          0.5769   -0.1088   -0.5923 H         1 <0>         0.1260
     37 H5          1.9684    1.9359   -0.6624 H         1 <0>         0.1277
     38 H6          1.3933    3.3948    0.1797 H         1 <0>         0.1186
     39 H7          1.9969    2.0064    1.1159 H         1 <0>         0.1269
     40 H8         -0.1728    1.9875   -1.8041 H         1 <0>         0.1379
     41 H9         -1.6664    1.6962   -0.8806 H         1 <0>         0.1345
     42 H10        -1.4609    3.9382    0.1587 H         1 <0>         0.0935
     43 H11         0.0326    4.2294   -0.7648 H         1 <0>         0.0974
     44 H12        -1.2289    3.9773   -2.8846 H         1 <0>         0.1115
     45 H13        -2.7225    3.6861   -1.9611 H         1 <0>         0.1073
     46 H14        -1.1495    8.6411   -2.4177 H         1 <0>         0.4472
     47 H15        -2.5435    9.4376   -0.1188 H         1 <0>         0.1075
     48 H16        -3.5787    8.1801    0.5991 H         1 <0>         0.1063
     49 H17        -2.6080    6.2243    1.6538 H         1 <0>         0.1329
     50 H18        -0.6525    5.2687    2.8046 H         1 <0>         0.1357
     51 H19         1.8304    8.2839    1.0819 H         1 <0>         0.1435
     52 H20        -0.1257    9.2311   -0.0747 H         1 <0>         0.1359
     53 H21        -3.7628    9.3572   -2.3873 H         1 <0>         0.1187
     54 H22        -5.4768    7.2528   -0.9877 H         1 <0>         0.1044
     55 H23        -5.1097    8.8841   -0.3755 H         1 <0>         0.1234
     56 H24        -6.2320    9.8813   -2.3422 H         1 <0>         0.1364
     57 H25        -7.3444    8.8047   -1.4639 H         1 <0>         0.1389
     58 H26        -5.2461    9.1524   -4.4193 H         1 <0>         0.1375
     59 H27        -5.6346    7.5405   -5.0664 H         1 <0>         0.1339
     60 H28        -3.3619    7.5890   -4.0601 H         1 <0>         0.1167
     61 H29        -4.4398    6.4848   -3.1723 H         1 <0>         0.0834
     62 H30        -7.6864    9.4787   -4.4144 H         1 <0>         0.1362
     63 H31        -8.0370    7.7838   -4.8299 H         1 <0>         0.1315
     64 H32        -9.6230    6.4309   -3.3376 H         1 <0>         0.0837
     65 H33        -8.3586    6.6690   -2.1022 H         1 <0>         0.0555
     66 H34       -10.6767    6.1319   -1.1809 H         1 <0>         0.0841
     67 H35        -9.9420    7.6229   -0.5514 H         1 <0>         0.0785
     68 H36       -12.4678    7.8292   -1.3939 H         1 <0>         0.1132
     69 H37       -12.4088    9.2473   -3.2130 H         1 <0>         0.1156
     70 H38       -10.1972   10.0193   -4.0174 H         1 <0>         0.0854
     71 H39       -10.3795    8.4006   -4.7286 H         1 <0>         0.0849
     72 N3          0.0806    1.7562    0.2899 N.4       1 <0>        -0.3972
     73 H40        -0.3725    2.0939    1.1470 H         1 <0>         0.4302
     74 N4         -6.6373    8.0219   -3.2827 N.4       1 <0>        -0.3961
     75 H41        -6.7688    7.0431   -3.0017 H         1 <0>         0.4248
@<TRIPOS>BOND
     1    1   34 1
     2    1   35 1
     3    1   36 1
     4    1   72 1
     5    2   37 1
     6    2   38 1
     7    2   39 1
     8    2   72 1
     9    3    4 1
    10    3   40 1
    11    3   41 1
    12    3   72 1
    13    4    5 1
    14    4   42 1
    15    4   43 1
    16    5    6 1
    17    5   44 1
    18    5   45 1
    19    6   11 am
    20    6    7 am
    21    7    8 2
    22    7    9 1
    23    9   10 1
    24    9   13 1
    25    9   21 1
    26   10   11 am
    27   10   46 1
    28   11   12 2
    29   13   14 1
    30   13   47 1
    31   13   48 1
    32   14   19 ar
    33   14   15 ar
    34   15   16 ar
    35   15   49 1
    36   16   17 ar
    37   16   50 1
    38   17   18 ar
    39   17   20 1
    40   18   19 ar
    41   18   51 1
    42   19   52 1
    43   21   25 1
    44   21   22 1
    45   21   53 1
    46   22   23 1
    47   22   54 1
    48   22   55 1
    49   23   56 1
    50   23   57 1
    51   23   74 1
    52   24   25 1
    53   24   58 1
    54   24   59 1
    55   24   74 1
    56   25   60 1
    57   25   61 1
    58   26   27 1
    59   26   62 1
    60   26   63 1
    61   26   74 1
    62   27   28 1
    63   27   33 1
    64   27   29 1
    65   29   30 1
    66   29   64 1
    67   29   65 1
    68   30   31 1
    69   30   66 1
    70   30   67 1
    71   31   32 2
    72   31   68 1
    73   32   33 1
    74   32   69 1
    75   33   70 1
    76   33   71 1
    77   72   73 1
    78   74   75 1
@<TRIPOS>MOLECULE
ZINC38971307
   57    60     0     0     0
SMALL
USER_CHARGES

@<TRIPOS>ATOM
      1 C1          2.9987   -5.5609    0.6396 C.3       1 <0>        -0.1535
      2 C2          1.9111   -4.4913    0.5217 C.3       1 <0>        -0.1243
      3 C3          0.5372   -5.1634    0.4801 C.3       1 <0>        -0.1179
      4 C4         -0.5504   -4.0938    0.3623 C.3       1 <0>         0.0642
      5 O1         -1.8336   -4.7215    0.3234 O.3       1 <0>        -0.3489
      6 C5         -2.9071   -3.9134    0.2202 C.2       1 <0>         0.5001
      7 O2         -2.7577   -2.7087    0.1647 O.2       1 <0>        -0.4875
      8 C6         -4.2624   -4.4907    0.1747 C.ar      1 <0>        -0.1251
      9 C7         -4.4365   -5.8767    0.2443 C.ar      1 <0>        -0.0126
     10 C8         -5.6987   -6.4105    0.2022 C.ar      1 <0>        -0.1949
     11 C9         -6.8064   -5.5744    0.0897 C.ar      1 <0>         0.1784
     12 C10        -6.6367   -4.1942    0.0202 C.ar      1 <0>        -0.1485
     13 C11        -5.3776   -3.6535    0.0676 C.ar      1 <0>        -0.0048
     14 N1         -8.0847   -6.1190    0.0463 N.pl3     1 <0>        -0.6976
     15 C12        -8.2597   -7.5693   -0.0643 C.3       1 <0>         0.3220
     16 H1         -7.2914   -7.9987   -0.3217 H         1 <0>         0.2302
     17 C13        -9.2027   -7.8338   -1.2162 C.2       1 <0>         0.4467
     18 N2         -8.9198   -7.4075   -2.4117 N.2       1 <0>        -0.8127
     19 S1         -9.9613   -7.7040   -3.6645 S.o2      1 <0>         2.6278
     20 O3         -9.9617   -9.1103   -3.8682 O.2       1 <0>        -0.9143
     21 O4        -11.1485   -6.9741   -3.3871 O.2       1 <0>        -0.9144
     22 C14        -9.2549   -6.9860   -5.1103 C.2       1 <0>        -0.7832
     23 C15        -8.4154   -7.5429   -6.0170 C.2       1 <0>         0.0372
     24 C16        -7.9839   -6.7818   -7.0871 C.2       1 <0>        -0.2024
     25 C17        -8.4132   -5.5009   -7.1982 C.2       1 <0>        -0.0814
     26 S2         -9.4656   -5.3386   -5.7652 S.3       1 <0>         0.2021
     27 N3        -10.3362   -8.5158   -0.9867 N.pl3     1 <0>        -0.5381
     28 C18       -10.6449   -8.9578    0.2144 C.ar      1 <0>         0.3777
     29 C19       -11.8511   -9.6744    0.4205 C.ar      1 <0>        -0.2033
     30 C20       -12.1731  -10.1298    1.6509 C.ar      1 <0>         0.1442
     31 C21       -11.3544   -9.9273    2.7743 C.ar      1 <0>        -0.0155
     32 C22       -10.1842   -9.2574    2.6891 C.ar      1 <0>        -0.1145
     33 C23        -9.7608   -8.7293    1.3838 C.ar      1 <0>         0.3448
     34 N4         -8.6381   -8.0785    1.2632 N.pl3     1 <0>        -0.4320
     35 H2          3.9775   -5.0821    0.6692 H         1 <0>         0.0620
     36 H3          2.8469   -6.1343    1.5541 H         1 <0>         0.0563
     37 H4          2.9466   -6.2284   -0.2206 H         1 <0>         0.0563
     38 H5          1.9631   -3.8238    1.3818 H         1 <0>         0.0679
     39 H6          2.0629   -3.9180   -0.3928 H         1 <0>         0.0678
     40 H7          0.4851   -5.8309   -0.3800 H         1 <0>         0.0747
     41 H8          0.3854   -5.7367    1.3947 H         1 <0>         0.0747
     42 H9         -0.4983   -3.4263    1.2224 H         1 <0>         0.0742
     43 H10        -0.3986   -3.5205   -0.5523 H         1 <0>         0.0740
     44 H11        -3.5776   -6.5257    0.3308 H         1 <0>         0.1557
     45 H12        -5.8338   -7.4806    0.2559 H         1 <0>         0.1266
     46 H13        -7.4980   -3.5485   -0.0670 H         1 <0>         0.1466
     47 H14        -5.2468   -2.5826    0.0181 H         1 <0>         0.1576
     48 H15        -8.8608   -5.5387    0.0893 H         1 <0>         0.4298
     49 H16        -8.0881   -8.5660   -5.9049 H         1 <0>         0.1539
     50 H17        -7.3145   -7.2013   -7.8236 H         1 <0>         0.1626
     51 H18        -8.1818   -4.7695   -7.9584 H         1 <0>         0.2126
     52 H19       -12.5161   -9.8567   -0.4107 H         1 <0>         0.2154
     53 H20       -13.0988  -10.6719    1.7761 H         1 <0>         0.2142
     54 H21       -11.6688  -10.3171    3.7312 H         1 <0>         0.2136
     55 H22        -9.5698   -9.1122    3.5654 H         1 <0>         0.2202
     56 H23        -8.0649   -7.9332    2.0321 H         1 <0>         0.4813
     57 H24       -10.9428   -8.6868   -1.7240 H         1 <0>         0.4542
@<TRIPOS>BOND
     1    1    2 1
     2    1   35 1
     3    1   36 1
     4    1   37 1
     5    2    3 1
     6    2   38 1
     7    2   39 1
     8    3    4 1
     9    3   40 1
    10    3   41 1
    11    4    5 1
    12    4   42 1
    13    4   43 1
    14    5    6 1
    15    6    7 2
    16    6    8 1
    17    8   13 ar
    18    8    9 ar
    19    9   10 ar
    20    9   44 1
    21   10   11 ar
    22   10   45 1
    23   11   12 ar
    24   11   14 1
    25   12   13 ar
    26   12   46 1
    27   13   47 1
    28   14   15 1
    29   14   48 1
    30   15   16 1
    31   15   34 1
    32   15   17 1
    33   17   18 2
    34   17   27 1
    35   18   19 1
    36   19   20 2
    37   19   21 2
    38   19   22 1
    39   22   26 1
    40   22   23 2
    41   23   24 1
    42   23   49 1
    43   24   25 2
    44   24   50 1
    45   25   26 1
    46   25   51 1
    47   27   28 2
    48   27   57 1
    49   28   33 ar
    50   28   29 ar
    51   29   30 ar
    52   29   52 1
    53   30   31 ar
    54   30   53 1
    55   31   32 ar
    56   31   54 1
    57   32   33 ar
    58   32   55 1
    59   33   34 2
    60   34   56 1
@<TRIPOS>MOLECULE
ZINC39355693
   63    67     0     0     0
SMALL
USER_CHARGES

@<TRIPOS>ATOM
      1 C1          6.9159   -1.5881    5.0903 C.ar      1 <0>        -0.0326
      2 C2          6.3223   -0.4191    4.6426 C.ar      1 <0>        -0.1082
      3 C3          5.7911   -0.3531    3.3737 C.ar      1 <0>        -0.0500
      4 C4          5.8532   -1.4761    2.5325 C.ar      1 <0>        -0.2071
      5 C5          6.4577   -2.6562    2.9960 C.ar      1 <0>        -0.0680
      6 C6          6.9823   -2.7015    4.2684 C.ar      1 <0>        -0.1079
      7 C7          5.3091   -1.4191    1.2246 C.2       1 <0>         0.2025
      8 C8          6.1167   -1.5497    0.0914 C.ar      1 <0>        -0.1357
      9 C9          7.5083   -1.7443    0.2166 C.ar      1 <0>         0.0089
     10 C10         8.2716   -1.8688   -0.9035 C.ar      1 <0>        -0.0786
     11 C11         7.7058   -1.8081   -2.1760 C.ar      1 <0>         0.1053
     12 C12         6.3695   -1.6218   -2.3597 C.ar      1 <0>        -0.1875
     13 C13         5.5199   -1.4857   -1.2473 C.ar      1 <0>         0.3292
     14 N1          4.2076   -1.3037   -1.4301 N.am      1 <0>        -0.5886
     15 C14         3.3463   -1.1668   -0.4410 C.2       1 <0>         0.5102
     16 O1          2.1646   -1.0037   -0.6824 O.2       1 <0>        -0.3828
     17 C15         3.8237   -1.2199    0.9924 C.3       1 <0>        -0.0004
     18 H1          3.5322   -0.2859    1.4728 H         1 <0>         0.2187
     19 N2          3.1110   -2.3109    1.6704 N.4       1 <0>        -0.3675
     20 C16         3.4221   -3.5830    1.0073 C.3       1 <0>        -0.0329
     21 C17         2.7471   -4.7326    1.7586 C.3       1 <0>        -0.1348
     22 C18         1.2315   -4.5135    1.7606 C.3       1 <0>        -0.1324
     23 C19         0.9234   -3.1506    2.3873 C.3       1 <0>        -0.1252
     24 H2          1.2507   -3.1457    3.4270 H         1 <0>         0.1191
     25 C20         1.6660   -2.0596    1.6128 C.3       1 <0>        -0.0195
     26 C21        -0.5599   -2.8920    2.3254 C.2       1 <0>         0.5184
     27 O2         -1.0494   -2.4041    1.3288 O.2       1 <0>        -0.5224
     28 N3         -1.3426   -3.2028    3.3777 N.am      1 <0>        -0.7059
     29 C22        -2.7847   -2.9514    3.3175 C.3       1 <0>         0.1062
     30 C23        -3.4342   -3.3910    4.6312 C.3       1 <0>         0.0665
     31 H3         -3.1760   -4.4287    4.8422 H         1 <0>         0.0902
     32 C24        -4.9677   -3.2425    4.5326 C.3       1 <0>        -0.1497
     33 C25        -5.3394   -2.7152    5.9453 C.3       1 <0>        -0.1575
     34 C26        -4.0999   -1.8438    6.2694 C.3       1 <0>         0.0490
     35 O3         -2.9841   -2.5511    5.7007 O.3       1 <0>        -0.3817
     36 Cl1         9.9837   -2.1075   -0.7441 Cl        1 <0>         0.0193
     37 H4          7.3338   -1.6303    6.0852 H         1 <0>         0.1543
     38 H5          6.2756    0.4433    5.2910 H         1 <0>         0.1565
     39 H6          5.3282    0.5589    3.0268 H         1 <0>         0.1462
     40 H7          6.5101   -3.5253    2.3570 H         1 <0>         0.1446
     41 H8          7.4475   -3.6079    4.6268 H         1 <0>         0.1565
     42 H9          7.9648   -1.7937    1.1942 H         1 <0>         0.1843
     43 H10         8.3452   -1.9113   -3.0402 H         1 <0>         0.1898
     44 H11         5.9623   -1.5787   -3.3590 H         1 <0>         0.1923
     45 H12         3.0565   -3.5561   -0.0192 H         1 <0>         0.1334
     46 H13         4.5013   -3.7359    1.0038 H         1 <0>         0.1304
     47 H14         2.9779   -5.6759    1.2637 H         1 <0>         0.1319
     48 H15         3.1122   -4.7605    2.7852 H         1 <0>         0.1019
     49 H16         0.8585   -4.5366    0.7367 H         1 <0>         0.0966
     50 H17         0.7504   -5.2995    2.3428 H         1 <0>         0.1127
     51 H18         1.4487   -1.0879    2.0562 H         1 <0>         0.1491
     52 H19         1.3378   -2.0652    0.5734 H         1 <0>         0.1717
     53 H20        -0.9512   -3.5930    4.1748 H         1 <0>         0.4085
     54 H21        -2.9618   -1.8871    3.1629 H         1 <0>         0.0809
     55 H22        -3.2177   -3.5155    2.4915 H         1 <0>         0.0873
     56 H23        -5.2387   -2.5182    3.7645 H         1 <0>         0.0838
     57 H24        -5.4393   -4.2066    4.3419 H         1 <0>         0.0914
     58 H25        -6.2464   -2.1117    5.9133 H         1 <0>         0.0914
     59 H26        -5.4401   -3.5350    6.6566 H         1 <0>         0.0840
     60 H27        -4.1986   -0.8600    5.8106 H         1 <0>         0.0640
     61 H28        -3.9761   -1.7483    7.3482 H         1 <0>         0.0920
     62 H29         3.8713   -1.2703   -2.3393 H         1 <0>         0.4574
     63 H30         3.4054   -2.3557    2.6344 H         1 <0>         0.4407
@<TRIPOS>BOND
     1    1    6 ar
     2    1    2 ar
     3    1   37 1
     4    2    3 ar
     5    2   38 1
     6    3    4 ar
     7    3   39 1
     8    4    5 ar
     9    4    7 1
    10    5    6 ar
    11    5   40 1
    12    6   41 1
    13    7   17 1
    14    7    8 2
    15    8   13 ar
    16    8    9 ar
    17    9   10 ar
    18    9   42 1
    19   10   11 ar
    20   10   36 1
    21   11   12 ar
    22   11   43 1
    23   12   13 ar
    24   12   44 1
    25   13   14 2
    26   14   15 am
    27   14   62 1
    28   15   16 2
    29   15   17 1
    30   17   18 1
    31   17   19 1
    32   19   25 1
    33   19   20 1
    34   19   63 1
    35   20   21 1
    36   20   45 1
    37   20   46 1
    38   21   22 1
    39   21   47 1
    40   21   48 1
    41   22   23 1
    42   22   49 1
    43   22   50 1
    44   23   24 1
    45   23   25 1
    46   23   26 1
    47   25   51 1
    48   25   52 1
    49   26   27 2
    50   26   28 am
    51   28   29 1
    52   28   53 1
    53   29   30 1
    54   29   54 1
    55   29   55 1
    56   30   31 1
    57   30   35 1
    58   30   32 1
    59   32   33 1
    60   32   56 1
    61   32   57 1
    62   33   34 1
    63   33   58 1
    64   33   59 1
    65   34   35 1
    66   34   60 1
    67   34   61 1
@<TRIPOS>MOLECULE
ZINC39710888
   74    79     0     0     0
SMALL
USER_CHARGES

@<TRIPOS>ATOM
      1 C1          3.3218   -6.7722    2.4504 C.3       1 <0>        -0.1368
      2 C2          3.3993   -5.8163    3.6129 C.ar      1 <0>        -0.1815
      3 C3          4.4196   -5.9200    4.5040 C.ar      1 <0>         0.1113
      4 C4          4.5505   -5.0677    5.6008 C.ar      1 <0>        -0.1441
      5 C5          3.6526   -4.0768    5.8376 C.ar      1 <0>         0.0020
      6 C6          2.5280   -3.9087    4.9163 C.ar      1 <0>        -0.1265
      7 C7          1.6023   -2.9277    5.1143 C.2       1 <0>         0.0587
      8 C8          0.4708   -2.8269    4.1100 C.3       1 <0>        -0.1521
      9 H1          0.4943   -1.8260    3.6792 H         1 <0>         0.2001
     10 C9          0.4613   -3.8220    2.9716 C.2       1 <0>         0.5289
     11 O1         -0.4230   -3.7864    2.1369 O.2       1 <0>        -0.4016
     12 N1          1.4183   -4.7307    2.8864 N.am      1 <0>        -0.5858
     13 C10         2.4177   -4.8196    3.7638 C.ar      1 <0>         0.3531
     14 C11        -0.8477   -2.9741    4.8721 C.3       1 <0>         0.0682
     15 H2         -0.9227   -3.9833    5.2769 H         1 <0>         0.1685
     16 C12        -2.0181   -2.7180    3.9205 C.3       1 <0>         0.1087
     17 H3         -2.0077   -3.4394    3.1034 H         1 <0>         0.1748
     18 N2         -1.9612   -1.3472    3.3950 N.2       1 <0>        -0.2582
     19 N3         -2.9800   -0.7450    3.7405 N.2       1 <0>         0.1218
     20 N4         -3.8437   -1.5323    4.5012 N.pl3     1 <0>        -0.5029
     21 N5         -3.3011   -2.7846    4.6511 N.3       1 <0>        -0.2921
     22 C13        -4.1799   -3.8135    4.0792 C.3       1 <0>         0.0467
     23 C14        -5.4286   -3.9597    4.9510 C.3       1 <0>        -0.1060
     24 C15        -6.3439   -5.0314    4.3553 C.3       1 <0>        -0.1186
     25 C16        -6.7552   -4.6214    2.9398 C.3       1 <0>        -0.1271
     26 C17        -5.5064   -4.4752    2.0680 C.3       1 <0>        -0.1144
     27 C18        -4.5912   -3.4035    2.6637 C.3       1 <0>        -0.1483
     28 N6         -0.8889   -2.0010    5.9718 N.4       1 <0>        -0.3795
     29 C19        -0.9530   -0.6410    5.4202 C.3       1 <0>         0.0053
     30 C20        -0.5311    0.3493    6.4749 C.ar      1 <0>        -0.1636
     31 C21        -1.4729    0.8939    7.3277 C.ar      1 <0>        -0.0905
     32 C22        -1.0860    1.8023    8.2952 C.ar      1 <0>        -0.1048
     33 C23         0.2428    2.1657    8.4101 C.ar      1 <0>        -0.0765
     34 C24         1.1847    1.6204    7.5579 C.ar      1 <0>        -0.1080
     35 C25         0.7984    0.7088    6.5932 C.ar      1 <0>        -0.1033
     36 C26        -2.0756   -2.2494    6.8012 C.3       1 <0>         0.0470
     37 C27        -2.0380   -3.6633    7.3213 C.2       1 <0>        -0.1000
     38 C28        -1.5439   -4.0510    8.5108 C.2       1 <0>        -0.1382
     39 C29        -1.7102   -5.4530    8.5861 C.2       1 <0>        -0.2131
     40 C30        -2.2959   -5.8382    7.4380 C.2       1 <0>         0.0046
     41 O2         -2.4973   -4.7492    6.6782 O.3       1 <0>        -0.1632
     42 H4          3.8693   -6.3592    1.6033 H         1 <0>         0.1022
     43 H5          3.7612   -7.7279    2.7360 H         1 <0>         0.1080
     44 H6          2.2787   -6.9209    2.1712 H         1 <0>         0.0745
     45 H7          5.1589   -6.6936    4.3577 H         1 <0>         0.1786
     46 H8          5.3832   -5.1990    6.2759 H         1 <0>         0.1773
     47 H9          3.7662   -3.4245    6.6908 H         1 <0>         0.1827
     48 H10         1.6718   -2.2502    5.9525 H         1 <0>         0.1959
     49 H11        -4.6939   -1.2415    4.8664 H         1 <0>         0.4704
     50 H12        -3.6492   -4.7649    4.0421 H         1 <0>         0.1076
     51 H13        -5.1356   -4.2518    5.9594 H         1 <0>         0.0781
     52 H14        -5.9593   -3.0084    4.9881 H         1 <0>         0.0665
     53 H15        -5.8132   -5.9827    4.3183 H         1 <0>         0.0668
     54 H16        -7.2335   -5.1355    4.9764 H         1 <0>         0.0776
     55 H17        -7.4073   -5.3848    2.5155 H         1 <0>         0.0746
     56 H18        -7.2859   -3.6700    2.9769 H         1 <0>         0.0666
     57 H19        -4.9758   -5.4265    2.0310 H         1 <0>         0.0658
     58 H20        -5.7995   -4.1831    1.0596 H         1 <0>         0.0741
     59 H21        -5.1219   -2.4522    2.7008 H         1 <0>         0.0760
     60 H22        -3.7015   -3.2994    2.0426 H         1 <0>         0.0612
     61 H23        -0.2847   -0.5650    4.5624 H         1 <0>         0.1459
     62 H24        -1.9739   -0.4242    5.1057 H         1 <0>         0.1575
     63 H25        -2.5110    0.6100    7.2379 H         1 <0>         0.1314
     64 H26        -1.8219    2.2283    8.9611 H         1 <0>         0.1411
     65 H27         0.5450    2.8760    9.1655 H         1 <0>         0.1407
     66 H28         2.2228    1.9046    7.6474 H         1 <0>         0.1394
     67 H29         1.5348    0.2799    5.9298 H         1 <0>         0.1244
     68 H30        -2.0845   -1.5537    7.6403 H         1 <0>         0.1551
     69 H31        -2.9745   -2.1067    6.2014 H         1 <0>         0.1963
     70 H32        -1.1041   -3.4137    9.2637 H         1 <0>         0.1612
     71 H33        -1.4219   -6.0922    9.4075 H         1 <0>         0.1641
     72 H34        -2.5626   -6.8508    7.1738 H         1 <0>         0.2169
     73 H35         1.3938   -5.3598    2.1484 H         1 <0>         0.4487
     74 H36        -0.0581   -2.0961    6.5364 H         1 <0>         0.4097
@<TRIPOS>BOND
     1    1    2 1
     2    1   42 1
     3    1   43 1
     4    1   44 1
     5    2   13 ar
     6    2    3 ar
     7    3    4 ar
     8    3   45 1
     9    4    5 ar
    10    4   46 1
    11    5    6 ar
    12    5   47 1
    13    6   13 ar
    14    6    7 2
    15    7    8 1
    16    7   48 1
    17    8    9 1
    18    8   10 1
    19    8   14 1
    20   10   11 2
    21   10   12 am
    22   12   13 2
    23   12   73 1
    24   14   15 1
    25   14   16 1
    26   14   28 1
    27   16   17 1
    28   16   21 1
    29   16   18 1
    30   18   19 2
    31   19   20 1
    32   20   21 1
    33   20   49 1
    34   21   22 1
    35   22   27 1
    36   22   23 1
    37   22   50 1
    38   23   24 1
    39   23   51 1
    40   23   52 1
    41   24   25 1
    42   24   53 1
    43   24   54 1
    44   25   26 1
    45   25   55 1
    46   25   56 1
    47   26   27 1
    48   26   57 1
    49   26   58 1
    50   27   59 1
    51   27   60 1
    52   28   29 1
    53   28   36 1
    54   28   74 1
    55   29   30 1
    56   29   61 1
    57   29   62 1
    58   30   35 ar
    59   30   31 ar
    60   31   32 ar
    61   31   63 1
    62   32   33 ar
    63   32   64 1
    64   33   34 ar
    65   33   65 1
    66   34   35 ar
    67   34   66 1
    68   35   67 1
    69   36   37 1
    70   36   68 1
    71   36   69 1
    72   37   41 1
    73   37   38 2
    74   38   39 1
    75   38   70 1
    76   39   40 2
    77   39   71 1
    78   40   41 1
    79   40   72 1
@<TRIPOS>MOLECULE
ZINC63696045
   72    76     0     0     0
SMALL
USER_CHARGES

@<TRIPOS>ATOM
      1 C1         -0.0184    1.5028    0.0103 C.3       1 <0>        -0.1175
      2 C2          0.0021   -0.0041    0.0020 C.ar      1 <0>        -0.0810
      3 C3          0.0057   -0.6882   -1.2000 C.ar      1 <0>        -0.1183
      4 C4          0.0240   -2.0707   -1.2121 C.ar      1 <0>        -0.1128
      5 C5          0.0391   -2.7732   -0.0230 C.ar      1 <0>        -0.1269
      6 C6          0.0360   -2.0893    1.1859 C.ar      1 <0>         0.1671
      7 C7          0.0228   -0.7000    1.1944 C.ar      1 <0>        -0.0959
      8 C8          0.0251    0.0464    2.5036 C.3       1 <0>        -0.1083
      9 N1          0.0513   -2.7965    2.3902 N.pl3     1 <0>        -0.6759
     10 C9         -1.2026   -3.2008    3.0442 C.3       1 <0>         0.1500
     11 C10        -1.1572   -2.7461    4.5069 C.3       1 <0>         0.0417
     12 N2          0.0660   -3.2590    5.1382 N.3       1 <0>        -0.5296
     13 C11         1.2676   -2.7038    4.5010 C.3       1 <0>         0.0341
     14 C12         1.3217   -3.1621    3.0350 C.3       1 <0>         0.1501
     15 C13         0.0649   -2.9918    6.5826 C.3       1 <0>         0.0435
     16 C14         1.2189   -3.7494    7.2424 C.3       1 <0>         0.1186
     17 N3          1.2178   -3.4829    8.6829 N.am      1 <0>        -0.7160
     18 C15         2.1514   -4.0484    9.4736 C.2       1 <0>         0.5201
     19 O1          2.9924   -4.7778    8.9925 O.2       1 <0>        -0.5374
     20 C16         2.1502   -3.7743   10.9554 C.3       1 <0>        -0.1042
     21 H1          1.2052   -4.1055   11.3860 H         1 <0>         0.1249
     22 C17         2.3236   -2.2723   11.1976 C.3       1 <0>        -0.1265
     23 C18         2.3816   -2.0097   12.7050 C.3       1 <0>        -0.1134
     24 C19         3.5308   -2.8160   13.3145 C.3       1 <0>         0.0128
     25 N4          3.3181   -4.2458   13.0564 N.3       1 <0>        -0.4843
     26 C20         3.3054   -4.5301   11.6158 C.3       1 <0>         0.0552
     27 C21         4.3277   -5.0610   13.7449 C.3       1 <0>         0.4035
     28 H2          4.1593   -6.1179   13.5382 H         1 <0>         0.2509
     29 N5          4.2727   -4.8154   15.1915 N.pl3     1 <0>        -0.4517
     30 C22         5.4309   -4.3440   15.5522 C.ar      1 <0>         0.3326
     31 C23         5.9751   -3.9157   16.8486 C.ar      1 <0>        -0.1161
     32 C24         7.2409   -3.4591   16.9205 C.ar      1 <0>         0.0316
     33 C25         8.0805   -3.3709   15.7939 C.ar      1 <0>         0.0877
     34 C26         7.6797   -3.7373   14.5582 C.ar      1 <0>        -0.1524
     35 C27         6.3186   -4.2514   14.3608 C.ar      1 <0>         0.3346
     36 N6          5.6741   -4.6704   13.3082 N.pl3     1 <0>        -0.5044
     37 Cl1         9.6946   -2.7667   16.0020 Cl        1 <0>         0.0915
     38 H3          1.0042    1.8801    0.0026 H         1 <0>         0.0702
     39 H4         -0.5455    1.8639   -0.8728 H         1 <0>         0.0688
     40 H5         -0.5286    1.8543    0.9071 H         1 <0>         0.0664
     41 H6         -0.0061   -0.1414   -2.1312 H         1 <0>         0.1233
     42 H7          0.0260   -2.6019   -2.1525 H         1 <0>         0.1239
     43 H8          0.0530   -3.8531   -0.0331 H         1 <0>         0.1208
     44 H9         -1.0019    0.2123    2.8290 H         1 <0>         0.0630
     45 H10         0.5541   -0.5398    3.2551 H         1 <0>         0.0648
     46 H11         0.5247    1.0064    2.3736 H         1 <0>         0.0631
     47 H12        -2.0467   -2.7299    2.5404 H         1 <0>         0.0755
     48 H13        -1.3051   -4.2851    3.0009 H         1 <0>         0.0596
     49 H14        -1.1593   -1.6569    4.5495 H         1 <0>         0.0406
     50 H15        -2.0288   -3.1327    5.0352 H         1 <0>         0.0820
     51 H16         1.2318   -1.6152    4.5436 H         1 <0>         0.0414
     52 H17         2.1546   -3.0597    5.0250 H         1 <0>         0.0784
     53 H18         1.4571   -4.2427    2.9908 H         1 <0>         0.0592
     54 H19         2.1472   -2.6656    2.5250 H         1 <0>         0.0734
     55 H20         0.1870   -1.9224    6.7544 H         1 <0>         0.0399
     56 H21        -0.8803   -3.3233    7.0127 H         1 <0>         0.0833
     57 H22         1.0968   -4.8188    7.0706 H         1 <0>         0.0850
     58 H23         2.1640   -3.4179    6.8123 H         1 <0>         0.0743
     59 H24         0.5451   -2.8995    9.0677 H         1 <0>         0.4040
     60 H25         3.2494   -1.9329   10.7329 H         1 <0>         0.0781
     61 H26         1.4797   -1.7339   10.7663 H         1 <0>         0.0976
     62 H27         2.5479   -0.9473   12.8832 H         1 <0>         0.1032
     63 H28         1.4407   -2.3134   13.1638 H         1 <0>         0.0950
     64 H29         4.4730   -2.5021   12.8652 H         1 <0>         0.0648
     65 H30         3.5659   -2.6423   14.3900 H         1 <0>         0.0876
     66 H31         3.1766   -5.6008   11.4574 H         1 <0>         0.1240
     67 H32         4.2489   -4.2088   11.1745 H         1 <0>         0.0746
     68 H33         5.3643   -3.9663   17.7379 H         1 <0>         0.2185
     69 H34         7.6264   -3.1481   17.8803 H         1 <0>         0.2135
     70 H35         8.3560   -3.6536   13.7203 H         1 <0>         0.2133
     71 H36         3.5122   -4.9750   15.7720 H         1 <0>         0.4997
     72 H37         6.0197   -4.7163   12.4030 H         1 <0>         0.4913
@<TRIPOS>BOND
     1    1    2 1
     2    1   38 1
     3    1   39 1
     4    1   40 1
     5    2    7 ar
     6    2    3 ar
     7    3    4 ar
     8    3   41 1
     9    4    5 ar
    10    4   42 1
    11    5    6 ar
    12    5   43 1
    13    6    7 ar
    14    6    9 1
    15    7    8 1
    16    8   44 1
    17    8   45 1
    18    8   46 1
    19    9   14 1
    20    9   10 1
    21   10   11 1
    22   10   47 1
    23   10   48 1
    24   11   12 1
    25   11   49 1
    26   11   50 1
    27   12   13 1
    28   12   15 1
    29   13   14 1
    30   13   51 1
    31   13   52 1
    32   14   53 1
    33   14   54 1
    34   15   16 1
    35   15   55 1
    36   15   56 1
    37   16   17 1
    38   16   57 1
    39   16   58 1
    40   17   18 am
    41   17   59 1
    42   18   19 2
    43   18   20 1
    44   20   21 1
    45   20   26 1
    46   20   22 1
    47   22   23 1
    48   22   60 1
    49   22   61 1
    50   23   24 1
    51   23   62 1
    52   23   63 1
    53   24   25 1
    54   24   64 1
    55   24   65 1
    56   25   26 1
    57   25   27 1
    58   26   66 1
    59   26   67 1
    60   27   28 1
    61   27   36 1
    62   27   29 1
    63   29   30 2
    64   29   71 1
    65   30   35 ar
    66   30   31 ar
    67   31   32 ar
    68   31   68 1
    69   32   33 ar
    70   32   69 1
    71   33   34 ar
    72   33   37 1
    73   34   35 ar
    74   34   70 1
    75   35   36 2
    76   36   72 1
@<TRIPOS>MOLECULE
ZINC00538110
   60    64     0     0     0
SMALL
USER_CHARGES

@<TRIPOS>ATOM
      1 C1          1.2205   -0.6726   -0.5061 C.ar      1 <0>        -0.0364
      2 C2          2.4000    0.0379   -0.5030 C.ar      1 <0>        -0.1215
      3 C3          2.4251    1.3451   -0.0272 C.ar      1 <0>         0.2101
      4 C4          1.2592    1.9384    0.4467 C.ar      1 <0>        -0.1416
      5 C5          0.0767    1.2331    0.4457 C.ar      1 <0>        -0.0367
      6 C6          0.0483   -0.0795   -0.0314 C.ar      1 <0>        -0.1604
      7 C7         -1.2189   -0.8389   -0.0338 C.cat     1 <0>         0.5711
      8 N1         -1.4857   -1.7822   -0.9232 N.pl3     1 <0>        -0.6371
      9 C8         -2.8197   -2.3406   -0.6523 C.3       1 <0>         0.0598
     10 C9         -3.2997   -1.5436    0.5775 C.3       1 <0>         0.0600
     11 N2         -2.1767   -0.6349    0.8565 N.pl3     1 <0>        -0.6377
     12 N3          3.6207    2.0616   -0.0249 N.am      1 <0>        -0.6701
     13 C10         4.7834    1.4315    0.2351 C.2       1 <0>         0.5653
     14 O1          4.8009    0.2255    0.3843 O.2       1 <0>        -0.4904
     15 C11         6.0388    2.2083    0.3390 C.ar      1 <0>        -0.0969
     16 C12         6.0175    3.5946    0.1733 C.ar      1 <0>        -0.0879
     17 C13         7.1853    4.3185    0.2698 C.ar      1 <0>        -0.0758
     18 C14         8.3915    3.6666    0.5338 C.ar      1 <0>        -0.1071
     19 C15         8.4135    2.2798    0.7002 C.ar      1 <0>         0.0118
     20 C16         7.2421    1.5559    0.6082 C.ar      1 <0>        -0.0516
     21 Cl1         9.9126    1.4680    1.0280 Cl        1 <0>        -0.0027
     22 C17         9.6456    4.4440    0.6369 C.2       1 <0>         0.5575
     23 O2         10.6954    3.8763    0.8668 O.2       1 <0>        -0.4718
     24 N4          9.6241    5.7820    0.4759 N.am      1 <0>        -0.6708
     25 C18        10.8175    6.5021    0.4672 C.ar      1 <0>         0.2169
     26 C19        11.9687    5.9317   -0.0669 C.ar      1 <0>        -0.1230
     27 C20        13.1492    6.6404   -0.0765 C.ar      1 <0>        -0.0345
     28 C21        13.1901    7.9334    0.4503 C.ar      1 <0>        -0.1633
     29 C22        12.0327    8.5036    0.9854 C.ar      1 <0>        -0.0344
     30 C23        10.8539    7.7920    0.9875 C.ar      1 <0>        -0.1450
     31 C24        14.4553    8.6963    0.4419 C.cat     1 <0>         0.5713
     32 N5         15.6420    8.1141    0.5091 N.pl3     1 <0>        -0.6372
     33 C25        16.6906    9.1456    0.4786 C.3       1 <0>         0.0597
     34 C26        15.8955   10.4632    0.3796 C.3       1 <0>         0.0603
     35 N6         14.4936   10.0168    0.3610 N.pl3     1 <0>        -0.6384
     36 H1          1.2008   -1.6859   -0.8793 H         1 <0>         0.1427
     37 H2          3.3066   -0.4202   -0.8699 H         1 <0>         0.1603
     38 H3          1.2819    2.9530    0.8161 H         1 <0>         0.1505
     39 H4         -0.8279    1.6940    0.8140 H         1 <0>         0.1434
     40 H5         -3.4844   -2.1754   -1.5002 H         1 <0>         0.1274
     41 H6         -2.7508   -3.4029   -0.4183 H         1 <0>         0.1268
     42 H7         -4.2034   -0.9816    0.3419 H         1 <0>         0.1270
     43 H8         -3.4699   -2.2091    1.4238 H         1 <0>         0.1269
     44 H9         -2.1445    0.0132    1.5776 H         1 <0>         0.4578
     45 H10         3.6159    3.0137   -0.2104 H         1 <0>         0.4207
     46 H11         5.0849    4.0994   -0.0310 H         1 <0>         0.1438
     47 H12         7.1681    5.3907    0.1408 H         1 <0>         0.1463
     48 H13         7.2576    0.4842    0.7407 H         1 <0>         0.1622
     49 H14         8.7782    6.2438    0.3661 H         1 <0>         0.4190
     50 H15        11.9364    4.9319   -0.4740 H         1 <0>         0.1566
     51 H16        14.0426    6.1968   -0.4905 H         1 <0>         0.1421
     52 H17        12.0613    9.5032    1.3934 H         1 <0>         0.1431
     53 H18         9.9576    8.2339    1.3971 H         1 <0>         0.1501
     54 H19        17.2802    9.1209    1.3950 H         1 <0>         0.1271
     55 H20        17.3304    9.0169   -0.3944 H         1 <0>         0.1267
     56 H21        16.0892   11.0945    1.2468 H         1 <0>         0.1266
     57 H22        16.1394   10.9905   -0.5426 H         1 <0>         0.1267
     58 H23        13.7198   10.5985    0.3010 H         1 <0>         0.4576
     59 H24        -0.8951   -2.0612   -1.6402 H         1 <0>         0.4582
     60 H25        15.7960    7.1583    0.5693 H         1 <0>         0.4584
@<TRIPOS>BOND
     1    1    6 ar
     2    1    2 ar
     3    1   36 1
     4    2    3 ar
     5    2   37 1
     6    3    4 ar
     7    3   12 1
     8    4    5 ar
     9    4   38 1
    10    5    6 ar
    11    5   39 1
    12    6    7 1
    13    7   11 1
    14    7    8 2
    15    8    9 1
    16    8   59 1
    17    9   10 1
    18    9   40 1
    19    9   41 1
    20   10   11 1
    21   10   42 1
    22   10   43 1
    23   11   44 1
    24   12   13 am
    25   12   45 1
    26   13   14 2
    27   13   15 1
    28   15   20 ar
    29   15   16 ar
    30   16   17 ar
    31   16   46 1
    32   17   18 ar
    33   17   47 1
    34   18   19 ar
    35   18   22 1
    36   19   20 ar
    37   19   21 1
    38   20   48 1
    39   22   23 2
    40   22   24 am
    41   24   25 1
    42   24   49 1
    43   25   30 ar
    44   25   26 ar
    45   26   27 ar
    46   26   50 1
    47   27   28 ar
    48   27   51 1
    49   28   29 ar
    50   28   31 1
    51   29   30 ar
    52   29   52 1
    53   30   53 1
    54   31   35 1
    55   31   32 2
    56   32   33 1
    57   32   60 1
    58   33   34 1
    59   33   54 1
    60   33   55 1
    61   34   35 1
    62   34   56 1
    63   34   57 1
    64   35   58 1
@<TRIPOS>MOLECULE
ZINC39634749
   70    72     0     0     0
SMALL
USER_CHARGES

@<TRIPOS>ATOM
      1 C1         -2.4242   -4.5699    1.5356 C.3       1 <0>        -0.1864
      2 C2         -2.8474   -3.5197    2.5647 C.3       1 <0>         0.0204
      3 C3         -2.0703   -3.7373    3.8646 C.3       1 <0>        -0.1970
      4 N1         -2.5600   -2.1776    2.0411 N.4       1 <0>        -0.3792
      5 C4         -3.3036   -1.9699    0.7914 C.3       1 <0>        -0.0289
      6 C5         -2.9336   -0.6091    0.1979 C.3       1 <0>         0.0925
      7 N2         -3.7271   -0.3712   -1.0103 N.am      1 <0>        -0.7316
      8 C6         -3.5692    0.7723   -1.7060 C.2       1 <0>         0.5287
      9 O1         -2.7701    1.6044   -1.3318 O.2       1 <0>        -0.5036
     10 C7         -4.3855    1.0170   -2.9489 C.3       1 <0>        -0.1114
     11 H1         -4.6513    0.0707   -3.4199 H         1 <0>         0.1162
     12 C8         -3.6041    1.9099   -3.9387 C.3       1 <0>         0.1155
     13 N3         -4.6329    2.7889   -4.5426 N.am      1 <0>        -0.6204
     14 C9         -5.5356    3.1276   -3.4163 C.3       1 <0>         0.0889
     15 C10        -5.6521    1.8199   -2.6082 C.3       1 <0>        -0.0741
     16 C11        -6.8976    1.0470   -3.0316 C.3       1 <0>        -0.1344
     17 C12        -8.1450    1.8397   -2.6312 C.3       1 <0>        -0.0139
     18 N4         -8.1467    2.0521   -1.1788 N.4       1 <0>        -0.5046
     19 C13        -6.9945    2.8749   -0.7915 C.3       1 <0>        -0.0096
     20 C14        -5.6983    2.1262   -1.1143 C.3       1 <0>        -0.1456
     21 C15        -4.7268    3.1900   -5.8258 C.2       1 <0>         0.5842
     22 O2         -3.9704    2.7351   -6.6617 O.2       1 <0>        -0.5038
     23 C16        -5.7494    4.1829   -6.2168 C.ar      1 <0>        -0.1251
     24 C17        -6.3357    5.0028   -5.2509 C.ar      1 <0>        -0.1061
     25 C18        -7.2894    5.9273   -5.6219 C.ar      1 <0>        -0.1004
     26 C19        -7.6657    6.0433   -6.9495 C.ar      1 <0>        -0.0641
     27 C20        -7.0878    5.2329   -7.9122 C.ar      1 <0>        -0.0894
     28 C21        -6.1289    4.3086   -7.5545 C.ar      1 <0>        -0.0478
     29 Br1        -8.9746    7.3132   -7.4496 Br        1 <0>        -0.0218
     30 C22        -2.9691   -1.1691    3.0278 C.3       1 <0>         0.0176
     31 C23        -4.2538   -1.6263    3.7217 C.3       1 <0>        -0.1876
     32 C24        -1.8614   -0.9953    4.0688 C.3       1 <0>        -0.2159
     33 H2         -2.6375   -5.5658    1.9241 H         1 <0>         0.1101
     34 H3         -2.9778   -4.4149    0.6096 H         1 <0>         0.0790
     35 H4         -1.3559   -4.4773    1.3402 H         1 <0>         0.0838
     36 H5         -3.9157   -3.6124    2.7601 H         1 <0>         0.1419
     37 H6         -1.0218   -3.4843    3.7077 H         1 <0>         0.0871
     38 H7         -2.4846   -3.1008    4.6464 H         1 <0>         0.0975
     39 H8         -2.1510   -4.7818    4.1656 H         1 <0>         0.1085
     40 H9         -3.0489   -2.7571    0.0819 H         1 <0>         0.1431
     41 H10        -4.3738   -1.9979    0.9965 H         1 <0>         0.1336
     42 H11        -3.1395    0.1738    0.9278 H         1 <0>         0.0920
     43 H12        -1.8736   -0.5995   -0.0559 H         1 <0>         0.0960
     44 H13        -4.3662   -1.0367   -1.3097 H         1 <0>         0.4081
     45 H14        -2.8601    2.5043   -3.4083 H         1 <0>         0.0996
     46 H15        -3.1276    1.2998   -4.7061 H         1 <0>         0.1015
     47 H16        -5.1001    3.9170   -2.8037 H         1 <0>         0.0922
     48 H17        -6.5135    3.4309   -3.7905 H         1 <0>         0.0998
     49 H18        -6.8879    0.9051   -4.1123 H         1 <0>         0.1220
     50 H19        -6.9090    0.0760   -2.5366 H         1 <0>         0.0961
     51 H20        -8.1410    2.8041   -3.1392 H         1 <0>         0.1350
     52 H21        -9.0369    1.2824   -2.9177 H         1 <0>         0.1443
     53 H22        -8.9987    2.5209   -0.9097 H         1 <0>         0.4382
     54 H23        -7.0178    3.8149   -1.3429 H         1 <0>         0.1360
     55 H24        -7.0383    3.0805    0.2781 H         1 <0>         0.1407
     56 H25        -5.6666    1.1938   -0.5506 H         1 <0>         0.0914
     57 H26        -4.8432    2.7453   -0.8432 H         1 <0>         0.1263
     58 H27        -6.0432    4.9129   -4.2151 H         1 <0>         0.1396
     59 H28        -7.7439    6.5619   -4.8755 H         1 <0>         0.1413
     60 H29        -7.3857    5.3278   -8.9460 H         1 <0>         0.1484
     61 H30        -5.6757    3.6802   -8.3068 H         1 <0>         0.1490
     62 H31        -3.1467   -0.2190    2.5240 H         1 <0>         0.1351
     63 H32        -4.6142   -0.8340    4.3777 H         1 <0>         0.1047
     64 H33        -5.0123   -1.8498    2.9713 H         1 <0>         0.0737
     65 H34        -4.0503   -2.5209    4.3102 H         1 <0>         0.0927
     66 H35        -1.0376   -0.4310    3.6319 H         1 <0>         0.0844
     67 H36        -2.2543   -0.4562    4.9308 H         1 <0>         0.1069
     68 H37        -1.5033   -1.9749    4.3853 H         1 <0>         0.1071
     69 H38        -8.0942    1.1603   -0.7097 H         1 <0>         0.4257
     70 H39        -1.5707   -2.0911    1.8622 H         1 <0>         0.4260
@<TRIPOS>BOND
     1    1    2 1
     2    1   33 1
     3    1   34 1
     4    1   35 1
     5    2    3 1
     6    2    4 1
     7    2   36 1
     8    3   37 1
     9    3   38 1
    10    3   39 1
    11    4    5 1
    12    4   30 1
    13    4   70 1
    14    5    6 1
    15    5   40 1
    16    5   41 1
    17    6    7 1
    18    6   42 1
    19    6   43 1
    20    7    8 am
    21    7   44 1
    22    8    9 2
    23    8   10 1
    24   10   11 1
    25   10   15 1
    26   10   12 1
    27   12   13 1
    28   12   45 1
    29   12   46 1
    30   13   14 1
    31   13   21 am
    32   14   15 1
    33   14   47 1
    34   14   48 1
    35   15   20 1
    36   15   16 1
    37   16   17 1
    38   16   49 1
    39   16   50 1
    40   17   18 1
    41   17   51 1
    42   17   52 1
    43   18   19 1
    44   18   53 1
    45   18   69 1
    46   19   20 1
    47   19   54 1
    48   19   55 1
    49   20   56 1
    50   20   57 1
    51   21   22 2
    52   21   23 1
    53   23   28 ar
    54   23   24 ar
    55   24   25 ar
    56   24   58 1
    57   25   26 ar
    58   25   59 1
    59   26   27 ar
    60   26   29 1
    61   27   28 ar
    62   27   60 1
    63   28   61 1
    64   30   31 1
    65   30   32 1
    66   30   62 1
    67   31   63 1
    68   31   64 1
    69   31   65 1
    70   32   66 1
    71   32   67 1
    72   32   68 1
@<TRIPOS>MOLECULE
ZINC39664624
   68    71     0     0     0
SMALL
USER_CHARGES

@<TRIPOS>ATOM
      1 C1          0.9325   -1.7810    2.2125 C.3       1 <0>        -0.0608
      2 N1          0.4792   -0.9522    3.3374 N.4       1 <0>        -0.3855
      3 C2          1.1467   -1.3921    4.5699 C.3       1 <0>        -0.0500
      4 C3          0.8128    0.4542    3.0751 C.3       1 <0>        -0.0214
      5 C4          0.0015    0.9562    1.8790 C.3       1 <0>         0.1629
      6 H1          0.2758    0.3884    0.9899 H         1 <0>         0.1351
      7 C5          0.2932    2.4171    1.6518 C.ar      1 <0>        -0.1239
      8 C6         -0.3235    3.3750    2.4348 C.ar      1 <0>        -0.1121
      9 C7         -0.0560    4.7151    2.2264 C.ar      1 <0>        -0.1155
     10 C8          0.8286    5.0973    1.2352 C.ar      1 <0>        -0.0957
     11 C9          1.4460    4.1394    0.4528 C.ar      1 <0>        -0.1069
     12 C10         1.1817    2.7991    0.6641 C.ar      1 <0>        -0.0959
     13 N2         -1.4274    0.7798    2.1494 N.am      1 <0>        -0.7430
     14 C11        -2.1685   -0.0231    1.3604 C.2       1 <0>         0.5239
     15 O1         -1.6345   -0.6824    0.4938 O.2       1 <0>        -0.5047
     16 C12        -3.6608   -0.1018    1.5551 C.3       1 <0>        -0.1154
     17 H2         -3.9175    0.0889    2.5971 H         1 <0>         0.1177
     18 C13        -4.1885   -1.4861    1.1157 C.3       1 <0>         0.1162
     19 N3         -5.4963   -1.2034    0.4789 N.am      1 <0>        -0.6187
     20 C14        -5.2730    0.0494   -0.2817 C.3       1 <0>         0.0862
     21 C15        -4.3745    0.9030    0.6353 C.3       1 <0>        -0.0713
     22 C16        -5.2247    1.8638    1.4610 C.3       1 <0>        -0.1351
     23 C17        -5.8791    2.8881    0.5297 C.3       1 <0>        -0.0139
     24 N4         -4.8389    3.6251   -0.1981 N.4       1 <0>        -0.5051
     25 C18        -4.0851    2.7073   -1.0607 C.3       1 <0>        -0.0092
     26 C19        -3.3551    1.6751   -0.1966 C.3       1 <0>        -0.1483
     27 C20        -6.6324   -1.9227    0.5706 C.2       1 <0>         0.5893
     28 O2         -6.6877   -2.8788    1.3192 O.2       1 <0>        -0.4977
     29 C21        -7.8115   -1.5490   -0.2395 C.ar      1 <0>        -0.0799
     30 C22        -7.6556   -0.7623   -1.3815 C.ar      1 <0>        -0.1613
     31 C23        -8.7612   -0.4159   -2.1350 C.ar      1 <0>         0.1298
     32 C24       -10.0223   -0.8481   -1.7585 C.ar      1 <0>        -0.1611
     33 C25       -10.1828   -1.6293   -0.6258 C.ar      1 <0>         0.1435
     34 C26        -9.0835   -1.9864    0.1319 C.ar      1 <0>        -0.1033
     35 F1        -11.4155   -2.0474   -0.2642 F         1 <0>        -0.1131
     36 F2         -8.6118    0.3461   -3.2406 F         1 <0>        -0.1229
     37 H3          2.0123   -1.6829    2.1008 H         1 <0>         0.1276
     38 H4          0.6804   -2.8239    2.4048 H         1 <0>         0.1284
     39 H5          0.4411   -1.4513    1.2971 H         1 <0>         0.1294
     40 H6          2.2258   -1.2900    4.4550 H         1 <0>         0.1275
     41 H7          0.8104   -0.7771    5.4046 H         1 <0>         0.1248
     42 H8          0.8992   -2.4356    4.7645 H         1 <0>         0.1289
     43 H9          0.5743    1.0541    3.9534 H         1 <0>         0.1375
     44 H10         1.8767    0.5402    2.8544 H         1 <0>         0.1491
     45 H11        -1.0146    3.0763    3.2091 H         1 <0>         0.1185
     46 H12        -0.5383    5.4634    2.8376 H         1 <0>         0.1310
     47 H13         1.0371    6.1443    1.0719 H         1 <0>         0.1336
     48 H14         2.1368    4.4381   -0.3217 H         1 <0>         0.1351
     49 H15         1.6669    2.0505    0.0553 H         1 <0>         0.1293
     50 H16        -1.8402    1.2409    2.8964 H         1 <0>         0.4115
     51 H17        -3.5069   -1.9421    0.3977 H         1 <0>         0.1010
     52 H18        -4.3197   -2.1350    1.9816 H         1 <0>         0.1011
     53 H19        -4.7655   -0.1623   -1.2229 H         1 <0>         0.0950
     54 H20        -6.2198    0.5573   -0.4648 H         1 <0>         0.1003
     55 H21        -5.9980    1.3047    1.9878 H         1 <0>         0.1216
     56 H22        -4.5924    2.3804    2.1832 H         1 <0>         0.0977
     57 H23        -6.5237    2.3721   -0.1819 H         1 <0>         0.1339
     58 H24        -6.4742    3.5861    1.1185 H         1 <0>         0.1450
     59 H25        -5.2694    4.3401   -0.7650 H         1 <0>         0.4388
     60 H26        -4.7722    2.1957   -1.7347 H         1 <0>         0.1352
     61 H27        -3.3579    3.2721   -1.6439 H         1 <0>         0.1419
     62 H28        -2.6557    2.1847    0.4662 H         1 <0>         0.0981
     63 H29        -2.8103    0.9830   -0.8387 H         1 <0>         0.1251
     64 H30        -6.6729   -0.4245   -1.6758 H         1 <0>         0.1509
     65 H31       -10.8836   -0.5748   -2.3500 H         1 <0>         0.1624
     66 H32        -9.2092   -2.5995    1.0121 H         1 <0>         0.1607
     67 H33        -4.2099    4.0566    0.4624 H         1 <0>         0.4276
     68 H34        -0.5197   -1.0468    3.4438 H         1 <0>         0.4188
@<TRIPOS>BOND
     1    1    2 1
     2    1   37 1
     3    1   38 1
     4    1   39 1
     5    2    3 1
     6    2    4 1
     7    2   68 1
     8    3   40 1
     9    3   41 1
    10    3   42 1
    11    4    5 1
    12    4   43 1
    13    4   44 1
    14    5    6 1
    15    5    7 1
    16    5   13 1
    17    7   12 ar
    18    7    8 ar
    19    8    9 ar
    20    8   45 1
    21    9   10 ar
    22    9   46 1
    23   10   11 ar
    24   10   47 1
    25   11   12 ar
    26   11   48 1
    27   12   49 1
    28   13   14 am
    29   13   50 1
    30   14   15 2
    31   14   16 1
    32   16   17 1
    33   16   21 1
    34   16   18 1
    35   18   19 1
    36   18   51 1
    37   18   52 1
    38   19   20 1
    39   19   27 am
    40   20   21 1
    41   20   53 1
    42   20   54 1
    43   21   26 1
    44   21   22 1
    45   22   23 1
    46   22   55 1
    47   22   56 1
    48   23   24 1
    49   23   57 1
    50   23   58 1
    51   24   25 1
    52   24   59 1
    53   24   67 1
    54   25   26 1
    55   25   60 1
    56   25   61 1
    57   26   62 1
    58   26   63 1
    59   27   28 2
    60   27   29 1
    61   29   34 ar
    62   29   30 ar
    63   30   31 ar
    64   30   64 1
    65   31   32 ar
    66   31   36 1
    67   32   33 ar
    68   32   65 1
    69   33   34 ar
    70   33   35 1
    71   34   66 1
@<TRIPOS>MOLECULE
ZINC39674637
   68    72     0     0     0
SMALL
USER_CHARGES

@<TRIPOS>ATOM
      1 C1          6.2013    1.5420   -1.6117 C.3       1 <0>        -0.1568
      2 C2          4.8039    1.3135   -1.0319 C.3       1 <0>         0.0936
      3 H1          4.2848    2.2651   -0.9177 H         1 <0>         0.1814
      4 C3          4.0111    0.3921   -1.9308 C.2       1 <0>         0.0787
      5 C4          3.7069   -0.6964   -1.1788 C.ar      1 <0>        -0.1599
      6 C5          2.9855   -1.8821   -1.4772 C.ar      1 <0>        -0.0100
      7 C6          2.8180   -2.8490   -0.5132 C.ar      1 <0>        -0.0119
      8 C7          3.3706   -2.6861    0.8271 C.ar      1 <0>         0.0561
      9 C8          4.0653   -1.5809    1.1674 C.ar      1 <0>        -0.1756
     10 C9          4.2722   -0.5184    0.1768 C.ar      1 <0>         0.3410
     11 N1          4.8993    0.6312    0.2628 N.pl3     1 <0>        -0.5677
     12 C10         2.0874   -4.0387   -0.8316 C.1       1 <0>         0.2165
     13 N2          1.5079   -4.9826   -1.0842 N.1       1 <0>        -0.3456
     14 C11         3.6351    0.6330   -3.3702 C.3       1 <0>        -0.1047
     15 C12         2.8319   -0.5593   -3.8939 C.3       1 <0>         0.0974
     16 N3          2.4664   -0.3252   -5.2931 N.am      1 <0>        -0.7332
     17 C13         1.7514   -1.2482   -5.9663 C.2       1 <0>         0.5265
     18 O1          1.4105   -2.2726   -5.4138 O.2       1 <0>        -0.5093
     19 C14         1.3754   -1.0073   -7.4056 C.3       1 <0>        -0.1124
     20 H2          1.2759    0.0611   -7.5974 H         1 <0>         0.1169
     21 C15         0.0588   -1.7402   -7.7476 C.3       1 <0>         0.1104
     22 N4          0.2507   -2.2272   -9.1340 N.am      1 <0>        -0.6156
     23 C16         1.6634   -2.6750   -9.1752 C.3       1 <0>         0.1071
     24 C17         2.4261   -1.6242   -8.3440 C.3       1 <0>        -0.0734
     25 C18         3.5306   -2.2946   -7.5327 C.3       1 <0>        -0.1451
     26 C19         4.5930   -2.8493   -8.4858 C.3       1 <0>        -0.0092
     27 N5          5.1466   -1.7562   -9.2941 N.4       1 <0>        -0.5039
     28 C20         4.0961   -1.1779  -10.1407 C.3       1 <0>        -0.0131
     29 C21         3.0128   -0.5524   -9.2576 C.3       1 <0>        -0.1336
     30 C22        -0.6545   -2.2562  -10.1321 C.2       1 <0>         0.6000
     31 O2         -0.3418   -2.6901  -11.2240 O.2       1 <0>        -0.5000
     32 C23        -2.0250   -1.7614   -9.8997 C.ar      1 <0>        -0.2098
     33 C24        -2.3377   -0.4185  -10.1369 C.ar      1 <0>         0.1598
     34 C25        -3.6242    0.0365   -9.9170 C.ar      1 <0>        -0.1600
     35 C26        -4.6009   -0.8314   -9.4635 C.ar      1 <0>        -0.0341
     36 C27        -4.3003   -2.1604   -9.2260 C.ar      1 <0>        -0.1579
     37 C28        -3.0205   -2.6336   -9.4465 C.ar      1 <0>         0.1653
     38 F1         -2.7302   -3.9334   -9.2193 F         1 <0>        -0.1189
     39 F2         -1.3849    0.4311  -10.5791 F         1 <0>        -0.1244
     40 H3          6.7148    0.5856   -1.7097 H         1 <0>         0.0839
     41 H4          6.1157    2.0105   -2.5921 H         1 <0>         0.1069
     42 H5          6.7688    2.1927   -0.9464 H         1 <0>         0.1006
     43 H6          2.5671   -2.0250   -2.4626 H         1 <0>         0.1758
     44 H7          3.2211   -3.4648    1.5603 H         1 <0>         0.1759
     45 H8          4.4668   -1.4783    2.1648 H         1 <0>         0.1777
     46 H9          3.0310    1.5374   -3.4414 H         1 <0>         0.1362
     47 H10         4.5394    0.7521   -3.9669 H         1 <0>         0.1316
     48 H11         3.4360   -1.4638   -3.8226 H         1 <0>         0.0871
     49 H12         1.9276   -0.6785   -3.2971 H         1 <0>         0.0896
     50 H13         2.7390    0.4942   -5.7350 H         1 <0>         0.4068
     51 H14        -0.0970   -2.5784   -7.0685 H         1 <0>         0.1032
     52 H15        -0.7836   -1.0501   -7.7004 H         1 <0>         0.0933
     53 H16         1.7628   -3.6627   -8.7251 H         1 <0>         0.0895
     54 H17         2.0295   -2.6852  -10.2019 H         1 <0>         0.0939
     55 H18         3.9867   -1.5634   -6.8653 H         1 <0>         0.0938
     56 H19         3.1073   -3.1096   -6.9456 H         1 <0>         0.1254
     57 H20         5.3919   -3.3143   -7.9080 H         1 <0>         0.1399
     58 H21         4.1398   -3.5925   -9.1418 H         1 <0>         0.1360
     59 H22         5.5162   -1.0424   -8.6842 H         1 <0>         0.4253
     60 H23         4.5287   -0.4108  -10.7830 H         1 <0>         0.1432
     61 H24         3.6547   -1.9609  -10.7573 H         1 <0>         0.1362
     62 H25         2.2244   -0.1391   -9.8866 H         1 <0>         0.1210
     63 H26         3.4502    0.2418   -8.6526 H         1 <0>         0.0964
     64 H27        -3.8674    1.0728  -10.0996 H         1 <0>         0.1552
     65 H28        -5.6040   -0.4692   -9.2934 H         1 <0>         0.1569
     66 H29        -5.0688   -2.8313   -8.8716 H         1 <0>         0.1565
     67 H30         5.3510    0.9729    1.0503 H         1 <0>         0.4606
     68 H31         5.8883   -2.1134   -9.8775 H         1 <0>         0.4373
@<TRIPOS>BOND
     1    1    2 1
     2    1   40 1
     3    1   41 1
     4    1   42 1
     5    2    3 1
     6    2   11 1
     7    2    4 1
     8    4    5 2
     9    4   14 1
    10    5   10 ar
    11    5    6 ar
    12    6    7 ar
    13    6   43 1
    14    7    8 ar
    15    7   12 1
    16    8    9 ar
    17    8   44 1
    18    9   10 ar
    19    9   45 1
    20   10   11 2
    21   11   67 1
    22   12   13 3
    23   14   15 1
    24   14   46 1
    25   14   47 1
    26   15   16 1
    27   15   48 1
    28   15   49 1
    29   16   17 am
    30   16   50 1
    31   17   18 2
    32   17   19 1
    33   19   20 1
    34   19   24 1
    35   19   21 1
    36   21   22 1
    37   21   51 1
    38   21   52 1
    39   22   23 1
    40   22   30 am
    41   23   24 1
    42   23   53 1
    43   23   54 1
    44   24   29 1
    45   24   25 1
    46   25   26 1
    47   25   55 1
    48   25   56 1
    49   26   27 1
    50   26   57 1
    51   26   58 1
    52   27   28 1
    53   27   59 1
    54   27   68 1
    55   28   29 1
    56   28   60 1
    57   28   61 1
    58   29   62 1
    59   29   63 1
    60   30   31 2
    61   30   32 1
    62   32   37 ar
    63   32   33 ar
    64   33   34 ar
    65   33   39 1
    66   34   35 ar
    67   34   64 1
    68   35   36 ar
    69   35   65 1
    70   36   37 ar
    71   36   66 1
    72   37   38 1
@<TRIPOS>MOLECULE
ZINC63067914
   65    69     0     0     0
SMALL
USER_CHARGES

@<TRIPOS>ATOM
      1 C1          0.0552    1.4678    0.0295 C.3       1 <0>         0.0253
      2 O1          0.0558    0.0389    0.0158 O.3       1 <0>        -0.3155
      3 C2          0.6705   -0.5878    1.0533 C.ar      1 <0>         0.1384
      4 C3          1.2559    0.1572    2.0666 C.ar      1 <0>        -0.2111
      5 C4          1.8797   -0.4822    3.1204 C.ar      1 <0>        -0.0718
      6 C5          1.9213   -1.8635    3.1655 C.ar      1 <0>        -0.1233
      7 C6          1.3390   -2.6083    2.1565 C.ar      1 <0>        -0.0418
      8 C7          0.7085   -1.9737    1.1038 C.ar      1 <0>        -0.1570
      9 C8          2.6029   -2.5584    4.3159 C.3       1 <0>         0.1084
     10 H1          2.6989   -1.8776    5.1617 H         1 <0>         0.0858
     11 C9          3.9956   -3.0669    3.8810 C.3       1 <0>        -0.1106
     12 C10         4.0837   -4.4469    4.5830 C.3       1 <0>         0.0035
     13 H2          4.3934   -4.3346    5.6221 H         1 <0>         0.0812
     14 N1          2.6816   -4.9332    4.4984 N.3       1 <0>        -0.4536
     15 N2          1.8372   -3.7570    4.7120 N.3       1 <0>        -0.3094
     16 C11         1.4037   -3.6657    6.1126 C.3       1 <0>         0.0287
     17 H3          2.2744   -3.5774    6.7624 H         1 <0>         0.0699
     18 C12         0.5990   -4.9205    6.4901 C.3       1 <0>        -0.1214
     19 C13        -0.1264   -4.6963    7.8387 C.3       1 <0>        -0.5780
     20 S1         -0.3749   -2.8742    7.8657 S.o2      1 <0>         2.3754
     21 O2          0.3462   -2.3254    8.9602 O.2       1 <0>        -0.9308
     22 O3         -1.7616   -2.5947    7.7314 O.2       1 <0>        -0.9216
     23 C14         0.4823   -2.4262    6.2976 C.3       1 <0>        -0.5742
     24 C15         5.0206   -5.3664    3.8429 C.2       1 <0>         0.5383
     25 O4          4.5760   -6.2101    3.0936 O.2       1 <0>        -0.4878
     26 N3          6.3525   -5.2513    4.0137 N.am      1 <0>        -0.7411
     27 C16         7.2632   -6.1452    3.2942 C.3       1 <0>         0.1160
     28 C17         8.7086   -5.8059    3.6638 C.3       1 <0>        -0.1567
     29 C18         9.6598   -6.7395    2.9123 C.3       1 <0>         0.2543
     30 N4          9.6221   -6.4462    1.4741 N.pl3     1 <0>        -0.4685
     31 C19        10.8218   -6.0893    1.1167 C.ar      1 <0>         0.3242
     32 C20        11.4011   -5.6827   -0.1710 C.ar      1 <0>        -0.1398
     33 C21        12.7084   -5.3611   -0.2402 C.ar      1 <0>         0.0360
     34 C22        13.5583   -5.3971    0.8796 C.ar      1 <0>         0.0393
     35 C23        13.1293   -5.7552    2.1064 C.ar      1 <0>        -0.1420
     36 C24        11.7213   -6.1270    2.3021 C.ar      1 <0>         0.3255
     37 N5         11.0428   -6.5058    3.3465 N.pl3     1 <0>        -0.4684
     38 H4          1.0827    1.8316    0.0242 H         1 <0>         0.0556
     39 H5         -0.4664    1.8394   -0.8525 H         1 <0>         0.1048
     40 H6         -0.4511    1.8224    0.9273 H         1 <0>         0.0588
     41 H7          1.2243    1.2362    2.0315 H         1 <0>         0.1304
     42 H8          2.3356    0.0974    3.9095 H         1 <0>         0.1215
     43 H9          1.3731   -3.6871    2.1938 H         1 <0>         0.1409
     44 H10         0.2500   -2.5559    0.3182 H         1 <0>         0.1322
     45 H11         4.0457   -3.1796    2.7980 H         1 <0>         0.0947
     46 H12         4.7802   -2.4000    4.2386 H         1 <0>         0.0883
     47 H13         2.5009   -5.6389    5.1966 H         1 <0>         0.3455
     48 H14        -0.1372   -5.1256    5.7129 H         1 <0>         0.1091
     49 H15         1.2753   -5.7706    6.5799 H         1 <0>         0.0907
     50 H16        -1.0838   -5.2172    7.8539 H         1 <0>         0.1503
     51 H17         0.5005   -5.0132    8.6722 H         1 <0>         0.1400
     52 H18         1.0674   -1.5141    6.4152 H         1 <0>         0.1410
     53 H19        -0.2254   -2.3346    5.4737 H         1 <0>         0.1568
     54 H20         6.7081   -4.5765    4.6130 H         1 <0>         0.4084
     55 H21         7.0508   -7.1783    3.5691 H         1 <0>         0.0968
     56 H22         7.1235   -6.0189    2.2206 H         1 <0>         0.0746
     57 H23         8.9210   -4.7728    3.3888 H         1 <0>         0.1226
     58 H24         8.8484   -5.9322    4.7374 H         1 <0>         0.1513
     59 H25         9.3822   -7.7784    3.0906 H         1 <0>         0.2437
     60 H26        10.7838   -5.6422   -1.0562 H         1 <0>         0.2070
     61 H27        13.1195   -5.0642   -1.1937 H         1 <0>         0.2049
     62 H28        14.5961   -5.1268    0.7517 H         1 <0>         0.2049
     63 H29        13.8161   -5.7693    2.9398 H         1 <0>         0.2067
     64 H30         8.8455   -6.5076    0.8961 H         1 <0>         0.4962
     65 H31        11.3877   -6.6135    4.2467 H         1 <0>         0.4966
@<TRIPOS>BOND
     1    1    2 1
     2    1   38 1
     3    1   39 1
     4    1   40 1
     5    2    3 1
     6    3    8 ar
     7    3    4 ar
     8    4    5 ar
     9    4   41 1
    10    5    6 ar
    11    5   42 1
    12    6    7 ar
    13    6    9 1
    14    7    8 ar
    15    7   43 1
    16    8   44 1
    17    9   10 1
    18    9   15 1
    19    9   11 1
    20   11   12 1
    21   11   45 1
    22   11   46 1
    23   12   13 1
    24   12   14 1
    25   12   24 1
    26   14   15 1
    27   14   47 1
    28   15   16 1
    29   16   17 1
    30   16   23 1
    31   16   18 1
    32   18   19 1
    33   18   48 1
    34   18   49 1
    35   19   20 1
    36   19   50 1
    37   19   51 1
    38   20   21 2
    39   20   22 2
    40   20   23 1
    41   23   52 1
    42   23   53 1
    43   24   25 2
    44   24   26 am
    45   26   27 1
    46   26   54 1
    47   27   28 1
    48   27   55 1
    49   27   56 1
    50   28   29 1
    51   28   57 1
    52   28   58 1
    53   29   37 1
    54   29   30 1
    55   29   59 1
    56   30   31 2
    57   30   64 1
    58   31   36 ar
    59   31   32 ar
    60   32   33 ar
    61   32   60 1
    62   33   34 ar
    63   33   61 1
    64   34   35 ar
    65   34   62 1
    66   35   36 ar
    67   35   63 1
    68   36   37 2
    69   37   65 1
@<TRIPOS>MOLECULE
ZINC09505397
   63    66     0     0     0
SMALL
USER_CHARGES
methyl 3,3,5,5-tetramethyl-8-[1-(2-thienylsulfonyl)pyrrolidin-2-yl]carbonylamino-7-thia-4-azabicyclo[4.3.0]nona-8,10-diene-9-carboxylate
@<TRIPOS>ATOM
      1 C1         -2.0259   -3.1595   -0.7018 C.3       1 <0>        -0.1815
      2 C2         -0.8345   -2.1864   -0.7749 C.3       1 <0>         0.0651
      3 C3         -1.2178   -0.9160   -0.0055 C.3       1 <0>        -0.0681
      4 C4          0.0021   -0.0041    0.0020 C.2       1 <0>        -0.0320
      5 C5         -0.0176    1.4431    0.0100 C.2       1 <0>        -0.2178
      6 C6          1.2106    2.0974    0.0018 C.2       1 <0>         0.1109
      7 S1          2.3536    0.7951   -0.0122 S.3       1 <0>         0.3506
      8 C7          1.2306   -0.5718   -0.0030 C.2       1 <0>        -0.2961
      9 C8          1.5341   -2.0345    0.0009 C.3       1 <0>         0.1692
     10 C9          2.1556   -2.3972    1.3630 C.3       1 <0>        -0.1786
     11 C10         2.5703   -2.3421   -1.0893 C.3       1 <0>        -0.1780
     12 N1          1.4573    3.4611    0.0051 N.am      1 <0>        -0.6176
     13 C11         2.7257    3.9165   -0.0043 C.2       1 <0>         0.4959
     14 O1          3.6513    3.1329   -0.0156 O.2       1 <0>        -0.4566
     15 C12         2.9940    5.3995   -0.0007 C.3       1 <0>         0.1422
     16 H1          2.5324    5.8616   -0.8733 H         1 <0>         0.1178
     17 C13         2.4325    6.0312    1.2905 C.3       1 <0>        -0.1245
     18 C14         3.6790    6.1054    2.2115 C.3       1 <0>        -0.1289
     19 C15         4.8017    6.4179    1.1909 C.3       1 <0>         0.1098
     20 N2          4.4434    5.6454   -0.0125 N.pl3     1 <0>        -0.9911
     21 S2          5.4990    5.1379   -1.1833 S.o2      1 <0>         2.7414
     22 O2          6.7813    5.0746   -0.5742 O.2       1 <0>        -0.9342
     23 O3          4.8981    4.0144   -1.8124 O.2       1 <0>        -0.9264
     24 C16         5.5810    6.4114   -2.3983 C.2       1 <0>        -0.7775
     25 C17         6.4131    7.4796   -2.4604 C.2       1 <0>         0.0017
     26 C18         6.2979    8.3582   -3.5213 C.2       1 <0>        -0.1929
     27 C19         5.3491    8.1315   -4.4624 C.2       1 <0>        -0.1208
     28 S3          4.5843    6.6340   -3.8626 S.3       1 <0>         0.1529
     29 C20        -1.2712    2.1999    0.0319 C.2       1 <0>         0.5221
     30 O4         -1.7768    2.5085    1.0944 O.2       1 <0>        -0.4819
     31 O5         -1.8652    2.5546   -1.1259 O.3       1 <0>        -0.3507
     32 C21        -3.1054    3.3034   -1.0282 C.3       1 <0>         0.0294
     33 C22        -0.6021   -1.8358   -2.2469 C.3       1 <0>        -0.1699
     34 H2         -2.9028   -2.6948   -1.1526 H         1 <0>         0.1069
     35 H3         -1.7815   -4.0743   -1.2418 H         1 <0>         0.0854
     36 H4         -2.2366   -3.3982    0.3407 H         1 <0>         0.0828
     37 H5         -1.4959   -1.1743    1.0150 H         1 <0>         0.1080
     38 H6         -2.0517   -0.4284   -0.5076 H         1 <0>         0.1181
     39 H7          2.4144   -3.4560    1.3739 H         1 <0>         0.0898
     40 H8          3.0546   -1.8018    1.5223 H         1 <0>         0.1074
     41 H9          1.4375   -2.1905    2.1566 H         1 <0>         0.0854
     42 H10         2.1484   -2.1105   -2.0673 H         1 <0>         0.0875
     43 H11         3.4612   -1.7360   -0.9252 H         1 <0>         0.1068
     44 H12         2.8370   -3.3982   -1.0495 H         1 <0>         0.0916
     45 H13         0.7170    4.0879    0.0141 H         1 <0>         0.4258
     46 H14         2.0394    7.0284    1.0926 H         1 <0>         0.1034
     47 H15         1.6656    5.3935    1.7300 H         1 <0>         0.0871
     48 H16         3.8560    5.1508    2.7070 H         1 <0>         0.0813
     49 H17         3.5788    6.9095    2.9406 H         1 <0>         0.0988
     50 H18         5.7673    6.0919    1.5775 H         1 <0>         0.0955
     51 H19         4.8229    7.4840    0.9650 H         1 <0>         0.0806
     52 H20         7.1570    7.6402   -1.6941 H         1 <0>         0.1491
     53 H21         6.9510    9.2150   -3.5968 H         1 <0>         0.1500
     54 H22         5.1164    8.7073   -5.3460 H         1 <0>         0.1999
     55 H23        -2.9254    4.2361   -0.4936 H         1 <0>         0.0684
     56 H24        -3.4764    3.5241   -2.0291 H         1 <0>         0.1096
     57 H25        -3.8452    2.7123   -0.4885 H         1 <0>         0.0678
     58 H26         0.2036   -1.1057   -2.3237 H         1 <0>         0.0845
     59 H27        -0.3295   -2.7368   -2.7964 H         1 <0>         0.0819
     60 H28        -1.5149   -1.4151   -2.6687 H         1 <0>         0.1048
     61 N3          0.3311   -2.8957   -0.1863 N.4       1 <0>        -0.5090
     62 H29         0.5838   -3.6727   -0.8081 H         1 <0>         0.4349
     63 H30         0.0540   -3.2669    0.7300 H         1 <0>         0.4315
@<TRIPOS>BOND
     1    1    2 1
     2    1   34 1
     3    1   35 1
     4    1   36 1
     5    2    3 1
     6    2   33 1
     7    2   61 1
     8    3    4 1
     9    3   37 1
    10    3   38 1
    11    4    8 2
    12    4    5 1
    13    5    6 2
    14    5   29 1
    15    6    7 1
    16    6   12 1
    17    7    8 1
    18    8    9 1
    19    9   10 1
    20    9   11 1
    21    9   61 1
    22   10   39 1
    23   10   40 1
    24   10   41 1
    25   11   42 1
    26   11   43 1
    27   11   44 1
    28   12   13 am
    29   12   45 1
    30   13   14 2
    31   13   15 1
    32   15   16 1
    33   15   20 1
    34   15   17 1
    35   17   18 1
    36   17   46 1
    37   17   47 1
    38   18   19 1
    39   18   48 1
    40   18   49 1
    41   19   20 1
    42   19   50 1
    43   19   51 1
    44   20   21 1
    45   21   22 2
    46   21   23 2
    47   21   24 1
    48   24   28 1
    49   24   25 2
    50   25   26 1
    51   25   52 1
    52   26   27 2
    53   26   53 1
    54   27   28 1
    55   27   54 1
    56   29   30 2
    57   29   31 1
    58   31   32 1
    59   32   55 1
    60   32   56 1
    61   32   57 1
    62   33   58 1
    63   33   59 1
    64   33   60 1
    65   61   62 1
    66   61   63 1
@<TRIPOS>MOLECULE
ZINC35744532
   59    62     0     0     0
SMALL
USER_CHARGES

@<TRIPOS>ATOM
      1 C1          2.7736   -4.4809   -1.8496 C.ar      1 <0>        -0.0956
      2 C2          1.8010   -3.8490   -1.0976 C.ar      1 <0>        -0.1112
      3 C3          2.0711   -2.6319   -0.5004 C.ar      1 <0>        -0.1027
      4 C4          3.3141   -2.0470   -0.6549 C.ar      1 <0>        -0.1157
      5 C5          4.2870   -2.6793   -1.4061 C.ar      1 <0>        -0.1022
      6 C6          4.0164   -3.8957   -2.0045 C.ar      1 <0>        -0.1101
      7 C7          3.6082   -0.7197   -0.0046 C.3       1 <0>        -0.0965
      8 C8          4.0512   -0.9475    1.4420 C.3       1 <0>         0.1355
      9 H1          3.2970   -1.5360    1.9645 H         1 <0>         0.1859
     10 C9          5.3638   -1.6878    1.4548 C.2       1 <0>         0.2278
     11 N1          5.5241   -2.9478    1.7433 N.2       1 <0>        -0.4689
     12 C10         6.8252   -3.2782    1.6565 C.2       1 <0>         0.3109
     13 N2          7.5050   -2.2139    1.3076 N.2       1 <0>        -0.2880
     14 O1          6.5613   -1.1626    1.1658 O.3       1 <0>        -0.0986
     15 C11         7.3956   -4.6239    1.9136 C.ar      1 <0>        -0.0464
     16 C12         6.5609   -5.6795    2.2749 C.ar      1 <0>        -0.0535
     17 C13         7.0961   -6.9289    2.5130 C.ar      1 <0>        -0.0952
     18 C14         8.4598   -7.1344    2.3938 C.ar      1 <0>        -0.0574
     19 C15         9.2932   -6.0889    2.0356 C.ar      1 <0>        -0.0925
     20 C16         8.7669   -4.8373    1.7890 C.ar      1 <0>        -0.0640
     21 Br1         9.1867   -8.8490    2.7221 Br        1 <0>        -0.0214
     22 N3          4.2134    0.3485    2.1143 N.4       1 <0>        -0.5058
     23 C17         2.9057    1.0078    2.2289 C.3       1 <0>        -0.0505
     24 C18         3.0525    2.2936    3.0449 C.3       1 <0>         0.0875
     25 H2          3.5088    2.0629    4.0076 H         1 <0>         0.1240
     26 C19         1.6727    2.9150    3.2704 C.3       1 <0>         0.0235
     27 N4          1.8137    4.1496    4.0539 N.3       1 <0>        -0.5252
     28 C20         2.2855    3.8585    5.4155 C.3       1 <0>         0.0132
     29 C21         2.4753    5.1735    6.1761 C.3       1 <0>         0.0613
     30 O2          1.2444    5.9017    6.1737 O.3       1 <0>        -0.3803
     31 C22         0.7560    6.2027    4.8637 C.3       1 <0>         0.0609
     32 C23         0.5489    4.8981    4.0898 C.3       1 <0>         0.0180
     33 O3          3.8803    3.2167    2.3345 O.3       1 <0>        -0.5367
     34 H3          2.5640   -5.4339   -2.3125 H         1 <0>         0.1310
     35 H4          0.8299   -4.3060   -0.9770 H         1 <0>         0.1316
     36 H5          1.3110   -2.1379    0.0865 H         1 <0>         0.1260
     37 H6          5.2580   -2.2222   -1.5270 H         1 <0>         0.1155
     38 H7          4.7764   -4.3896   -2.5917 H         1 <0>         0.1280
     39 H8          4.4036   -0.2148   -0.5529 H         1 <0>         0.1088
     40 H9          2.7101   -0.1022   -0.0166 H         1 <0>         0.1195
     41 H10         5.4969   -5.5201    2.3688 H         1 <0>         0.1475
     42 H11         6.4500   -7.7478    2.7930 H         1 <0>         0.1484
     43 H12        10.3566   -6.2540    1.9447 H         1 <0>         0.1490
     44 H13         9.4174   -4.0233    1.5049 H         1 <0>         0.1431
     45 H14         4.5989    0.2036    3.0355 H         1 <0>         0.4364
     46 H15         2.5322    1.2496    1.2338 H         1 <0>         0.1467
     47 H16         2.2041    0.3391    2.7277 H         1 <0>         0.1504
     48 H17         1.2164    3.1457    2.3077 H         1 <0>         0.0935
     49 H18         1.0413    2.2109    3.8123 H         1 <0>         0.0574
     50 H19         1.5495    3.2423    5.9318 H         1 <0>         0.0478
     51 H20         3.2356    3.3266    5.3655 H         1 <0>         0.0843
     52 H21         2.7702    4.9605    7.2036 H         1 <0>         0.1022
     53 H22         3.2499    5.7666    5.6900 H         1 <0>         0.0638
     54 H23        -0.1925    6.7340    4.9420 H         1 <0>         0.1047
     55 H24         1.4807    6.8258    4.3394 H         1 <0>         0.0640
     56 H25         0.2313    5.1251    3.0721 H         1 <0>         0.0910
     57 H26        -0.2150    4.2986    4.5850 H         1 <0>         0.0488
     58 H27         3.5350    3.4674    1.4667 H         1 <0>         0.3897
     59 H28         4.8376    0.9307    1.5763 H         1 <0>         0.4406
@<TRIPOS>BOND
     1    1    6 ar
     2    1    2 ar
     3    1   34 1
     4    2    3 ar
     5    2   35 1
     6    3    4 ar
     7    3   36 1
     8    4    5 ar
     9    4    7 1
    10    5    6 ar
    11    5   37 1
    12    6   38 1
    13    7    8 1
    14    7   39 1
    15    7   40 1
    16    8    9 1
    17    8   10 1
    18    8   22 1
    19   10   14 1
    20   10   11 2
    21   11   12 1
    22   12   13 2
    23   12   15 1
    24   13   14 1
    25   15   20 ar
    26   15   16 ar
    27   16   17 ar
    28   16   41 1
    29   17   18 ar
    30   17   42 1
    31   18   19 ar
    32   18   21 1
    33   19   20 ar
    34   19   43 1
    35   20   44 1
    36   22   23 1
    37   22   45 1
    38   22   59 1
    39   23   24 1
    40   23   46 1
    41   23   47 1
    42   24   25 1
    43   24   26 1
    44   24   33 1
    45   26   27 1
    46   26   48 1
    47   26   49 1
    48   27   32 1
    49   27   28 1
    50   28   29 1
    51   28   50 1
    52   28   51 1
    53   29   30 1
    54   29   52 1
    55   29   53 1
    56   30   31 1
    57   31   32 1
    58   31   54 1
    59   31   55 1
    60   32   56 1
    61   32   57 1
    62   33   58 1
@<TRIPOS>MOLECULE
ZINC39654504
   77    80     0     0     0
SMALL
USER_CHARGES

@<TRIPOS>ATOM
      1 C1         -2.0990    2.4299   -2.2152 C.3       1 <0>        -0.1478
      2 C2         -2.9055    2.3915   -3.5148 C.3       1 <0>        -0.0908
      3 C3         -2.0124    1.9554   -4.6476 C.ar      1 <0>        -0.0734
      4 C4         -1.3103    2.8973   -5.3761 C.ar      1 <0>        -0.1161
      5 C5         -0.4910    2.4974   -6.4151 C.ar      1 <0>        -0.1104
      6 C6         -0.3734    1.1554   -6.7254 C.ar      1 <0>        -0.0987
      7 C7         -1.0748    0.2134   -5.9963 C.ar      1 <0>        -0.1081
      8 C8         -1.8908    0.6131   -4.9545 C.ar      1 <0>        -0.1140
      9 C9          0.5190    0.7195   -7.8588 C.3       1 <0>        -0.0864
     10 C10         1.9289    0.4570   -7.3259 C.3       1 <0>         0.1210
     11 N1          2.7964    0.0332   -8.4277 N.am      1 <0>        -0.7283
     12 C11         4.0920   -0.2547   -8.1929 C.2       1 <0>         0.5192
     13 O1          4.5625   -0.0762   -7.0894 O.2       1 <0>        -0.5182
     14 C12         4.9560   -0.7983   -9.3015 C.3       1 <0>        -0.1142
     15 H1          4.3466   -1.3372  -10.0270 H         1 <0>         0.1129
     16 C13         6.0510   -1.7238   -8.7256 C.3       1 <0>         0.0907
     17 N2          7.2473   -1.4504   -9.5564 N.am      1 <0>        -0.6080
     18 C14         7.2160    0.0154   -9.7767 C.3       1 <0>         0.1125
     19 C15         5.7245    0.3423   -9.9897 C.3       1 <0>        -0.0727
     20 C16         5.3799    1.6790   -9.3401 C.3       1 <0>        -0.1468
     21 C17         6.1107    2.8039  -10.0788 C.3       1 <0>        -0.0080
     22 N3          5.7102    2.8055  -11.4909 N.4       1 <0>        -0.5045
     23 C18         6.1287    1.5529  -12.1315 C.3       1 <0>        -0.0113
     24 C19         5.3987    0.3752  -11.4798 C.3       1 <0>        -0.1343
     25 C20         8.1578   -2.3346  -10.0097 C.2       1 <0>         0.6184
     26 O2          9.0876   -1.9529  -10.6948 O.2       1 <0>        -0.5159
     27 C21         8.0272   -3.7619   -9.6759 C.2       1 <0>        -0.0467
     28 C22         7.1656   -4.3228   -8.7493 C.2       1 <0>        -0.1965
     29 C23         7.4149   -5.6963   -8.7963 C.2       1 <0>         0.0243
     30 N4          8.3517   -5.9039   -9.6861 N.2       1 <0>        -0.2590
     31 N5          8.7277   -4.7992  -10.2227 N.pl3     1 <0>        -0.2376
     32 C24         9.7541   -4.6709  -11.2602 C.3       1 <0>         0.1746
     33 C25        10.9357   -3.8682  -10.7121 C.3       1 <0>        -0.1745
     34 C26        10.2331   -6.0625  -11.6786 C.3       1 <0>        -0.1481
     35 C27         9.1655   -3.9481  -12.4734 C.3       1 <0>        -0.1757
     36 C28         6.7277   -6.7516   -7.9686 C.3       1 <0>        -0.0721
     37 H2         -1.7029    1.4367   -2.0039 H         1 <0>         0.0562
     38 H3         -1.2746    3.1352   -2.3200 H         1 <0>         0.0552
     39 H4         -2.7450    2.7453   -1.3959 H         1 <0>         0.0616
     40 H5         -3.7300    1.6862   -3.4100 H         1 <0>         0.0744
     41 H6         -3.3017    3.3847   -3.7261 H         1 <0>         0.0737
     42 H7         -1.4021    3.9458   -5.1337 H         1 <0>         0.1231
     43 H8          0.0570    3.2333   -6.9848 H         1 <0>         0.1186
     44 H9         -0.9833   -0.8350   -6.2390 H         1 <0>         0.1223
     45 H10        -2.4359   -0.1232   -4.3825 H         1 <0>         0.1245
     46 H11         0.1225   -0.1937   -8.3028 H         1 <0>         0.0803
     47 H12         0.5563    1.5043   -8.6144 H         1 <0>         0.0759
     48 H13         2.3253    1.3702   -6.8819 H         1 <0>         0.0740
     49 H14         1.8915   -0.3277   -6.5703 H         1 <0>         0.0756
     50 H15         2.4384   -0.0402   -9.3262 H         1 <0>         0.4003
     51 H16         6.2480   -1.4761   -7.6825 H         1 <0>         0.1045
     52 H17         5.7538   -2.7683   -8.8194 H         1 <0>         0.1126
     53 H18         7.6001    0.5399   -8.9018 H         1 <0>         0.0887
     54 H19         7.7927    0.2793  -10.6632 H         1 <0>         0.0921
     55 H20         4.3042    1.8449   -9.3975 H         1 <0>         0.0969
     56 H21         5.6916    1.6671   -8.2957 H         1 <0>         0.1278
     57 H22         5.8533    3.7619   -9.6272 H         1 <0>         0.1397
     58 H23         7.1869    2.6463  -10.0068 H         1 <0>         0.1337
     59 H24         4.7072    2.8955  -11.5546 H         1 <0>         0.4276
     60 H25         5.8846    1.5888  -13.1933 H         1 <0>         0.1400
     61 H26         7.2044    1.4250  -12.0107 H         1 <0>         0.1342
     62 H27         5.7234   -0.5561  -11.9439 H         1 <0>         0.1180
     63 H28         4.3236    0.4939  -11.6146 H         1 <0>         0.0971
     64 H29         6.4521   -3.8079   -8.1230 H         1 <0>         0.1673
     65 H30        11.4153   -4.4293   -9.9100 H         1 <0>         0.0573
     66 H31        11.6554   -3.6895  -11.5110 H         1 <0>         0.0795
     67 H32        10.5784   -2.9141  -10.3248 H         1 <0>         0.0984
     68 H33         9.3913   -6.6343  -12.0690 H         1 <0>         0.0682
     69 H34        10.9968   -5.9670  -12.4504 H         1 <0>         0.0785
     70 H35        10.6525   -6.5775  -10.8143 H         1 <0>         0.0717
     71 H36         8.9057   -2.9263  -12.1967 H         1 <0>         0.0956
     72 H37         9.9005   -3.9309  -13.2780 H         1 <0>         0.0806
     73 H38         8.2708   -4.4721  -12.8097 H         1 <0>         0.0552
     74 H39         5.8454   -7.1112   -8.4981 H         1 <0>         0.0758
     75 H40         7.4125   -7.5822   -7.7976 H         1 <0>         0.0756
     76 H41         6.4281   -6.3247   -7.0114 H         1 <0>         0.0776
     77 H42         6.1457    3.5845  -11.9618 H         1 <0>         0.4346
@<TRIPOS>BOND
     1    1    2 1
     2    1   37 1
     3    1   38 1
     4    1   39 1
     5    2    3 1
     6    2   40 1
     7    2   41 1
     8    3    8 ar
     9    3    4 ar
    10    4    5 ar
    11    4   42 1
    12    5    6 ar
    13    5   43 1
    14    6    7 ar
    15    6    9 1
    16    7    8 ar
    17    7   44 1
    18    8   45 1
    19    9   10 1
    20    9   46 1
    21    9   47 1
    22   10   11 1
    23   10   48 1
    24   10   49 1
    25   11   12 am
    26   11   50 1
    27   12   13 2
    28   12   14 1
    29   14   15 1
    30   14   19 1
    31   14   16 1
    32   16   17 1
    33   16   51 1
    34   16   52 1
    35   17   18 1
    36   17   25 am
    37   18   19 1
    38   18   53 1
    39   18   54 1
    40   19   24 1
    41   19   20 1
    42   20   21 1
    43   20   55 1
    44   20   56 1
    45   21   22 1
    46   21   57 1
    47   21   58 1
    48   22   23 1
    49   22   59 1
    50   22   77 1
    51   23   24 1
    52   23   60 1
    53   23   61 1
    54   24   62 1
    55   24   63 1
    56   25   26 2
    57   25   27 1
    58   27   31 1
    59   27   28 2
    60   28   29 1
    61   28   64 1
    62   29   30 2
    63   29   36 1
    64   30   31 1
    65   31   32 1
    66   32   33 1
    67   32   34 1
    68   32   35 1
    69   33   65 1
    70   33   66 1
    71   33   67 1
    72   34   68 1
    73   34   69 1
    74   34   70 1
    75   35   71 1
    76   35   72 1
    77   35   73 1
    78   36   74 1
    79   36   75 1
    80   36   76 1
@<TRIPOS>MOLECULE
ZINC39696197
   66    69     0     0     0
SMALL
USER_CHARGES

@<TRIPOS>ATOM
      1 C1         -1.4375    2.2461  -10.3316 C.3       1 <0>        -0.1453
      2 C2         -1.9241    1.9490   -8.9118 C.3       1 <0>        -0.0931
      3 C3         -0.8647    1.1762   -8.1692 C.ar      1 <0>        -0.0718
      4 C4         -0.8582   -0.2055   -8.2137 C.ar      1 <0>        -0.1110
      5 C5          0.1135   -0.9144   -7.5325 C.ar      1 <0>        -0.1037
      6 C6          1.0790   -0.2416   -6.8071 C.ar      1 <0>        -0.1038
      7 C7          1.0731    1.1400   -6.7634 C.ar      1 <0>        -0.1140
      8 C8          0.1039    1.8490   -7.4481 C.ar      1 <0>        -0.1136
      9 C9          2.1378   -1.0145   -6.0637 C.3       1 <0>         0.1871
     10 H1          2.2126   -2.0196   -6.4786 H         1 <0>         0.0965
     11 C10         1.7613   -1.1006   -4.5832 C.3       1 <0>        -0.1624
     12 N1          3.4271   -0.3324   -6.2008 N.am      1 <0>        -0.7242
     13 C11         4.5743   -1.0297   -6.0827 C.2       1 <0>         0.5150
     14 O1          4.5394   -2.2219   -5.8628 O.2       1 <0>        -0.5105
     15 C12         5.9005   -0.3281   -6.2237 C.3       1 <0>        -0.1145
     16 H2          5.8070    0.7197   -5.9381 H         1 <0>         0.1163
     17 C13         6.9738   -1.0275   -5.3597 C.3       1 <0>         0.1227
     18 N2          7.6516   -1.9621   -6.2888 N.am      1 <0>        -0.6149
     19 C14         7.7531   -1.2081   -7.5613 C.3       1 <0>         0.0978
     20 C15         6.4175   -0.4454   -7.6674 C.3       1 <0>        -0.0714
     21 C16         6.6467    0.9412   -8.2610 C.3       1 <0>        -0.1350
     22 C17         7.1044    0.7996   -9.7154 C.3       1 <0>        -0.0098
     23 N3          6.0823    0.0790  -10.4841 N.4       1 <0>        -0.5051
     24 C18         5.9349   -1.2860   -9.9645 C.3       1 <0>        -0.0093
     25 C19         5.4276   -1.2326   -8.5207 C.3       1 <0>        -0.1481
     26 C20         8.0795   -3.2145   -6.0343 C.2       1 <0>         0.5996
     27 O2          7.8357   -3.7344   -4.9619 O.2       1 <0>        -0.4883
     28 C21         8.8411   -3.9525   -7.0531 C.2       1 <0>        -0.1833
     29 C22         9.7199   -3.3137   -7.9006 C.2       1 <0>        -0.2199
     30 S1         10.3349   -4.5428   -8.8627 S.3       1 <0>         0.2738
     31 C23         9.4604   -5.9372   -8.1862 C.2       1 <0>        -0.1830
     32 C24         8.7079   -5.3830   -7.2088 C.2       1 <0>         0.1247
     33 O3          7.8755   -6.1236   -6.4259 O.3       1 <0>        -0.2975
     34 C25         6.5345   -6.2976   -6.8879 C.3       1 <0>         0.0408
     35 Cl1         9.5552   -7.6044   -8.6609 Cl        1 <0>         0.0420
     36 H3         -0.5222    2.8362  -10.2860 H         1 <0>         0.0530
     37 H4         -1.2399    1.3088  -10.8517 H         1 <0>         0.0543
     38 H5         -2.2038    2.8051  -10.8688 H         1 <0>         0.0625
     39 H6         -2.1217    2.8863   -8.3918 H         1 <0>         0.0754
     40 H7         -2.8394    1.3589   -8.9575 H         1 <0>         0.0760
     41 H8         -1.6126   -0.7311   -8.7804 H         1 <0>         0.1260
     42 H9          0.1182   -1.9938   -7.5666 H         1 <0>         0.1245
     43 H10         1.8272    1.6656   -6.1964 H         1 <0>         0.1181
     44 H11         0.1014    2.9286   -7.4170 H         1 <0>         0.1243
     45 H12         1.6865   -0.0954   -4.1683 H         1 <0>         0.0611
     46 H13         0.8021   -1.6081   -4.4812 H         1 <0>         0.0718
     47 H14         2.5271   -1.6596   -4.0455 H         1 <0>         0.0667
     48 H15         3.4550    0.6211   -6.3767 H         1 <0>         0.3978
     49 H16         7.6833   -0.2973   -4.9704 H         1 <0>         0.0885
     50 H17         6.5054   -1.5766   -4.5429 H         1 <0>         0.1016
     51 H18         8.5878   -0.5080   -7.5231 H         1 <0>         0.0870
     52 H19         7.8681   -1.8931   -8.4013 H         1 <0>         0.0858
     53 H20         5.7177    1.5102   -8.2257 H         1 <0>         0.0984
     54 H21         7.4141    1.4604   -7.6870 H         1 <0>         0.1230
     55 H22         7.2529    1.7893  -10.1473 H         1 <0>         0.1410
     56 H23         8.0420    0.2448   -9.7486 H         1 <0>         0.1322
     57 H24         5.2010    0.5640  -10.4067 H         1 <0>         0.4288
     58 H25         5.2213   -1.8337  -10.5801 H         1 <0>         0.1387
     59 H26         6.9004   -1.7911   -9.9918 H         1 <0>         0.1319
     60 H27         5.3355   -2.2459   -8.1297 H         1 <0>         0.1233
     61 H28         4.4545   -0.7422   -8.4948 H         1 <0>         0.0978
     62 H29         9.9581   -2.2609   -7.9376 H         1 <0>         0.1975
     63 H30         5.9799   -6.9054   -6.1730 H         1 <0>         0.1031
     64 H31         6.0548   -5.3238   -6.9861 H         1 <0>         0.0445
     65 H32         6.5459   -6.7964   -7.8570 H         1 <0>         0.0483
     66 H33         6.3579    0.0403  -11.4540 H         1 <0>         0.4342
@<TRIPOS>BOND
     1    1    2 1
     2    1   36 1
     3    1   37 1
     4    1   38 1
     5    2    3 1
     6    2   39 1
     7    2   40 1
     8    3    8 ar
     9    3    4 ar
    10    4    5 ar
    11    4   41 1
    12    5    6 ar
    13    5   42 1
    14    6    7 ar
    15    6    9 1
    16    7    8 ar
    17    7   43 1
    18    8   44 1
    19    9   10 1
    20    9   11 1
    21    9   12 1
    22   11   45 1
    23   11   46 1
    24   11   47 1
    25   12   13 am
    26   12   48 1
    27   13   14 2
    28   13   15 1
    29   15   16 1
    30   15   20 1
    31   15   17 1
    32   17   18 1
    33   17   49 1
    34   17   50 1
    35   18   19 1
    36   18   26 am
    37   19   20 1
    38   19   51 1
    39   19   52 1
    40   20   25 1
    41   20   21 1
    42   21   22 1
    43   21   53 1
    44   21   54 1
    45   22   23 1
    46   22   55 1
    47   22   56 1
    48   23   24 1
    49   23   57 1
    50   23   66 1
    51   24   25 1
    52   24   58 1
    53   24   59 1
    54   25   60 1
    55   25   61 1
    56   26   27 2
    57   26   28 1
    58   28   32 1
    59   28   29 2
    60   29   30 1
    61   29   62 1
    62   30   31 1
    63   31   32 2
    64   31   35 1
    65   32   33 1
    66   33   34 1
    67   34   63 1
    68   34   64 1
    69   34   65 1
@<TRIPOS>MOLECULE
ZINC63850300
   59    63     0     0     0
SMALL
USER_CHARGES

@<TRIPOS>ATOM
      1 C1          0.9923    1.1507    0.0558 C.ar      1 <0>        -0.1506
      2 C2          2.2710    1.7075    0.1960 C.ar      1 <0>         0.0564
      3 C3          3.3818    0.9550    0.3443 C.ar      1 <0>        -0.2097
      4 C4          3.2913   -0.4641    0.3635 C.ar      1 <0>         0.3303
      5 N1          4.2050   -1.3955    0.4913 N.pl3     1 <0>        -0.5826
      6 C5          3.5474   -2.7061    0.4405 C.3       1 <0>         0.0535
      7 C6          2.0728   -2.4234    0.2596 C.2       1 <0>         0.0797
      8 C7          1.9517   -1.0770    0.2172 C.ar      1 <0>        -0.1617
      9 C8          0.7948   -0.1872    0.0609 C.ar      1 <0>        -0.0097
     10 C9          0.9630   -3.4369    0.1482 C.3       1 <0>        -0.0310
     11 H1          0.0109   -2.9210    0.0242 H         1 <0>         0.1298
     12 C10         1.2156   -4.3389   -1.0616 C.3       1 <0>         0.1380
     13 N2          0.0789   -5.2455   -1.2406 N.am      1 <0>        -0.7368
     14 C11         0.0806   -6.1370   -2.2513 C.2       1 <0>         0.5842
     15 O1          1.0271   -6.1889   -3.0159 O.2       1 <0>        -0.5569
     16 C12        -1.0168   -7.0123   -2.4241 C.2       1 <0>        -0.3341
     17 C13        -1.0700   -7.8230   -3.5010 C.2       1 <0>         0.2723
     18 N3         -0.1594   -7.7399   -4.4933 N.pl3     1 <0>        -0.6898
     19 C14         0.0396   -8.9501   -5.3211 C.3       1 <0>         0.4270
     20 H2          0.2894   -8.6882   -6.3492 H         1 <0>         0.1447
     21 S1         -1.6394   -9.7071   -5.2136 S.3       1 <0>        -0.2767
     22 C15        -2.1549   -8.8775   -3.6506 C.3       1 <0>        -0.0441
     23 N4          1.0571   -9.8291   -4.7394 N.am      1 <0>        -0.6234
     24 C16         1.7117  -10.9278   -5.4592 C.3       1 <0>         0.1044
     25 C17         2.9713  -11.2694   -4.6326 C.3       1 <0>        -0.1303
     26 C18         2.5609  -10.7912   -3.2205 C.3       1 <0>        -0.1540
     27 C19         1.5151   -9.7293   -3.4796 C.2       1 <0>         0.5142
     28 O2          1.1422   -8.9090   -2.6678 O.2       1 <0>        -0.4936
     29 C20         0.9208   -4.2753    1.3998 C.ar      1 <0>        -0.0938
     30 C21         2.0244   -5.0209    1.7699 C.ar      1 <0>        -0.1094
     31 C22         1.9859   -5.7899    2.9178 C.ar      1 <0>        -0.1014
     32 C23         0.8436   -5.8138    3.6965 C.ar      1 <0>        -0.0891
     33 C24        -0.2602   -5.0688    3.3275 C.ar      1 <0>        -0.0966
     34 C25        -0.2203   -4.2943    2.1815 C.ar      1 <0>        -0.0251
     35 Cl1        -1.6042   -3.3530    1.7209 Cl        1 <0>        -0.0533
     36 H3          0.1421    1.8074   -0.0549 H         1 <0>         0.1589
     37 H4          2.3717    2.7828    0.1846 H         1 <0>         0.1619
     38 H5          4.3445    1.4333    0.4487 H         1 <0>         0.1617
     39 H6          3.9255   -3.2836   -0.4030 H         1 <0>         0.1763
     40 H7          3.7148   -3.2467    1.3720 H         1 <0>         0.1747
     41 H8         -0.1993   -0.5948   -0.0483 H         1 <0>         0.1593
     42 H9          1.3346   -3.7247   -1.9542 H         1 <0>         0.0784
     43 H10         2.1224   -4.9211   -0.8977 H         1 <0>         0.0761
     44 H11        -0.6750   -5.2042   -0.6316 H         1 <0>         0.4010
     45 H12        -1.8123   -7.0317   -1.6939 H         1 <0>         0.1292
     46 H13         0.3409   -6.9250   -4.6565 H         1 <0>         0.4280
     47 H14        -2.1418   -9.5746   -2.8128 H         1 <0>         0.1222
     48 H15        -3.1367   -8.4167   -3.7592 H         1 <0>         0.1332
     49 H16         1.0493  -11.7919   -5.5118 H         1 <0>         0.0819
     50 H17         1.9942  -10.6066   -6.4617 H         1 <0>         0.0825
     51 H18         3.1639  -12.3422   -4.6405 H         1 <0>         0.0954
     52 H19         3.8377  -10.7164   -4.9953 H         1 <0>         0.0830
     53 H20         2.1388  -11.6158   -2.6462 H         1 <0>         0.1053
     54 H21         3.4165  -10.3611   -2.6998 H         1 <0>         0.0995
     55 H22         2.9168   -5.0029    1.1618 H         1 <0>         0.1296
     56 H23         2.8482   -6.3726    3.2064 H         1 <0>         0.1384
     57 H24         0.8140   -6.4151    4.5931 H         1 <0>         0.1423
     58 H25        -1.1525   -5.0877    3.9357 H         1 <0>         0.1444
     59 H26         5.1567   -1.2435    0.6009 H         1 <0>         0.4565
@<TRIPOS>BOND
     1    1    9 ar
     2    1    2 ar
     3    1   36 1
     4    2    3 ar
     5    2   37 1
     6    3    4 ar
     7    3   38 1
     8    4    8 ar
     9    4    5 2
    10    5    6 1
    11    5   59 1
    12    6    7 1
    13    6   39 1
    14    6   40 1
    15    7    8 2
    16    7   10 1
    17    8    9 ar
    18    9   41 1
    19   10   11 1
    20   10   12 1
    21   10   29 1
    22   12   13 1
    23   12   42 1
    24   12   43 1
    25   13   44 1
    26   13   14 am
    27   14   15 2
    28   14   16 1
    29   16   45 1
    30   16   17 2
    31   17   22 1
    32   17   18 1
    33   18   19 1
    34   18   46 1
    35   19   20 1
    36   19   21 1
    37   19   23 1
    38   21   22 1
    39   22   47 1
    40   22   48 1
    41   23   27 am
    42   23   24 1
    43   24   25 1
    44   24   49 1
    45   24   50 1
    46   25   26 1
    47   25   51 1
    48   25   52 1
    49   26   27 1
    50   26   53 1
    51   26   54 1
    52   27   28 2
    53   29   34 ar
    54   29   30 ar
    55   30   31 ar
    56   30   55 1
    57   31   32 ar
    58   31   56 1
    59   32   33 ar
    60   32   57 1
    61   33   34 ar
    62   33   58 1
    63   34   35 1
@<TRIPOS>MOLECULE
ZINC14982187
   81    84     0     0     0
SMALL
USER_CHARGES
(5R)-5-[1-[(4-methoxy-2,5-dimethyl-phenyl)methyl]-4-piperidyl]-3-[2-[(2R)-1-methylpyrrolidin-2-yl]ethyl]-5-propyl-imidazolidine-2,4-dione
@<TRIPOS>ATOM
      1 C1         -7.9959   -0.6960   -4.1270 C.3       1 <0>        -0.1548
      2 C2         -6.6487   -1.1961   -3.6019 C.3       1 <0>        -0.1289
      3 C3         -5.7636   -1.6088   -4.7797 C.3       1 <0>        -0.1216
      4 C4         -4.4164   -2.1089   -4.2546 C.3       1 <0>         0.1306
      5 C5         -3.7744   -1.0636   -3.3642 C.2       1 <0>         0.5318
      6 O1         -3.4392    0.0588   -3.6770 O.2       1 <0>        -0.4453
      7 N1         -3.6521   -1.6419   -2.1531 N.am      1 <0>        -0.5773
      8 C6         -4.1295   -2.8918   -2.1526 C.2       1 <0>         0.7013
      9 O2         -4.1326   -3.6134   -1.1747 O.2       1 <0>        -0.5251
     10 N2         -4.6057   -3.2604   -3.3556 N.am      1 <0>        -0.7186
     11 C7         -3.0738   -0.9814   -0.9803 C.3       1 <0>         0.1167
     12 C8         -1.5681   -1.2492   -0.9350 C.3       1 <0>        -0.1571
     13 C9         -0.9814   -0.6480    0.3438 C.3       1 <0>         0.0270
     14 H1         -1.2141    0.4157    0.3940 H         1 <0>         0.1443
     15 C10        -1.5578   -1.3738    1.5776 C.3       1 <0>        -0.1426
     16 C11        -0.3397   -1.4574    2.5347 C.3       1 <0>        -0.1440
     17 C12         0.8267   -1.6734    1.5385 C.3       1 <0>        -0.0097
     18 C13         0.9457   -1.4697   -0.8791 C.3       1 <0>        -0.0455
     19 C14        -3.4916   -2.4790   -5.4160 C.3       1 <0>        -0.0942
     20 C15        -4.1114   -3.6269   -6.2178 C.3       1 <0>        -0.1446
     21 C16        -3.1544   -4.0331   -7.3408 C.3       1 <0>        -0.0026
     22 C17        -1.2342   -3.3520   -6.0289 C.3       1 <0>         0.0003
     23 C18        -2.1338   -2.9254   -4.8667 C.3       1 <0>        -0.1503
     24 C19        -0.9746   -4.9802   -7.8014 C.3       1 <0>         0.0538
     25 C20        -1.4883   -6.3145   -8.2776 C.ar      1 <0>        -0.2040
     26 C21        -2.1167   -6.4140   -9.5055 C.ar      1 <0>        -0.0504
     27 C22        -2.5834   -7.6369   -9.9466 C.ar      1 <0>        -0.1099
     28 C23        -2.4318   -8.7638   -9.1515 C.ar      1 <0>         0.1708
     29 C24        -1.8062   -8.6603   -7.9178 C.ar      1 <0>        -0.2040
     30 C25        -1.3357   -7.4359   -7.4837 C.ar      1 <0>        -0.0322
     31 C26        -0.6559   -7.3228   -6.1435 C.3       1 <0>        -0.1374
     32 O3         -2.8959   -9.9669   -9.5806 O.3       1 <0>        -0.3015
     33 C27        -2.7056  -11.0837   -8.7096 C.3       1 <0>         0.0205
     34 C28        -3.2630   -7.7456  -11.2873 C.3       1 <0>        -0.1170
     35 H2         -8.4855   -1.4921   -4.6879 H         1 <0>         0.0609
     36 H3         -8.6264   -0.4020   -3.2878 H         1 <0>         0.0637
     37 H4         -7.8356    0.1624   -4.7793 H         1 <0>         0.0609
     38 H5         -6.8090   -2.0546   -2.9496 H         1 <0>         0.0674
     39 H6         -6.1591   -0.4000   -3.0410 H         1 <0>         0.0574
     40 H7         -5.6033   -0.7504   -5.4320 H         1 <0>         0.0977
     41 H8         -6.2532   -2.4049   -5.3406 H         1 <0>         0.0942
     42 H9         -4.9969   -4.1176   -3.5862 H         1 <0>         0.4431
     43 H10        -3.5398   -1.3729   -0.0761 H         1 <0>         0.1119
     44 H11        -3.2501    0.0923   -1.0442 H         1 <0>         0.1093
     45 H12        -1.0916   -0.7930   -1.8028 H         1 <0>         0.0935
     46 H13        -1.3898   -2.3245   -0.9460 H         1 <0>         0.0955
     47 H14        -2.3618   -0.7909    2.0270 H         1 <0>         0.1168
     48 H15        -1.9067   -2.3712    1.3099 H         1 <0>         0.1034
     49 H16        -0.2133   -0.5268    3.0880 H         1 <0>         0.1021
     50 H17        -0.4349   -2.3038    3.2148 H         1 <0>         0.1198
     51 H18         0.8932   -2.7235    1.2539 H         1 <0>         0.1321
     52 H19         1.7668   -1.3378    1.9763 H         1 <0>         0.1376
     53 H20         0.7116   -0.8202   -1.7226 H         1 <0>         0.1212
     54 H21         2.0236   -1.6235   -0.8271 H         1 <0>         0.1248
     55 H22         0.4476   -2.4302   -1.0110 H         1 <0>         0.1195
     56 H23        -3.3557   -1.6129   -6.0636 H         1 <0>         0.1200
     57 H24        -4.2833   -4.4789   -5.5601 H         1 <0>         0.0895
     58 H25        -5.0587   -3.3009   -6.6471 H         1 <0>         0.1249
     59 H26        -2.9938   -3.1846   -8.0059 H         1 <0>         0.1371
     60 H27        -3.5865   -4.8599   -7.9046 H         1 <0>         0.1362
     61 H28        -1.0826   -2.5066   -6.7001 H         1 <0>         0.1375
     62 H29        -0.2716   -3.6841   -5.6400 H         1 <0>         0.1298
     63 H30        -1.6684   -2.0982   -4.3308 H         1 <0>         0.1037
     64 H31        -2.2747   -3.7659   -4.1872 H         1 <0>         0.0913
     65 H32        -0.9395   -4.2842   -8.6396 H         1 <0>         0.1390
     66 H33         0.0268   -5.1027   -7.3887 H         1 <0>         0.1341
     67 H34        -2.2390   -5.5356  -10.1217 H         1 <0>         0.1394
     68 H35        -1.6874   -9.5360   -7.2970 H         1 <0>         0.1408
     69 H36        -1.4044   -7.1513   -5.3699 H         1 <0>         0.0741
     70 H37        -0.1176   -8.2462   -5.9300 H         1 <0>         0.0902
     71 H38         0.0458   -6.4889   -6.1613 H         1 <0>         0.0673
     72 H39        -1.6400  -11.2277   -8.5309 H         1 <0>         0.0626
     73 H40        -3.2108  -10.8959   -7.7622 H         1 <0>         0.0612
     74 H41        -3.1208  -11.9795   -9.1714 H         1 <0>         0.1133
     75 H42        -4.3336   -7.5804  -11.1664 H         1 <0>         0.0770
     76 H43        -2.8538   -6.9955  -11.9640 H         1 <0>         0.0729
     77 H44        -3.0932   -8.7396  -11.7012 H         1 <0>         0.0794
     78 N3          0.4809   -0.8303    0.3794 N.4       1 <0>        -0.3948
     79 H45         0.9354    0.0851    0.4781 H         1 <0>         0.4360
     80 N4         -1.8755   -4.4751   -6.7449 N.4       1 <0>        -0.3960
     81 H46        -2.0633   -5.2320   -6.0770 H         1 <0>         0.4221
@<TRIPOS>BOND
     1    1    2 1
     2    1   35 1
     3    1   36 1
     4    1   37 1
     5    2    3 1
     6    2   38 1
     7    2   39 1
     8    3    4 1
     9    3   40 1
    10    3   41 1
    11    4   10 1
    12    4    5 1
    13    4   19 1
    14    5    6 2
    15    5    7 am
    16    7    8 am
    17    7   11 1
    18    8    9 2
    19    8   10 am
    20   10   42 1
    21   11   12 1
    22   11   43 1
    23   11   44 1
    24   12   13 1
    25   12   45 1
    26   12   46 1
    27   13   14 1
    28   13   15 1
    29   13   78 1
    30   15   16 1
    31   15   47 1
    32   15   48 1
    33   16   17 1
    34   16   49 1
    35   16   50 1
    36   17   51 1
    37   17   52 1
    38   17   78 1
    39   18   53 1
    40   18   54 1
    41   18   55 1
    42   18   78 1
    43   19   23 1
    44   19   20 1
    45   19   56 1
    46   20   21 1
    47   20   57 1
    48   20   58 1
    49   21   59 1
    50   21   60 1
    51   21   80 1
    52   22   23 1
    53   22   61 1
    54   22   62 1
    55   22   80 1
    56   23   63 1
    57   23   64 1
    58   24   25 1
    59   24   65 1
    60   24   66 1
    61   24   80 1
    62   25   30 ar
    63   25   26 ar
    64   26   27 ar
    65   26   67 1
    66   27   28 ar
    67   27   34 1
    68   28   29 ar
    69   28   32 1
    70   29   30 ar
    71   29   68 1
    72   30   31 1
    73   31   69 1
    74   31   70 1
    75   31   71 1
    76   32   33 1
    77   33   72 1
    78   33   73 1
    79   33   74 1
    80   34   75 1
    81   34   76 1
    82   34   77 1
    83   78   79 1
    84   80   81 1
@<TRIPOS>MOLECULE
ZINC39710240
   70    75     0     0     0
SMALL
USER_CHARGES

@<TRIPOS>ATOM
      1 C1          5.5067   -4.6026    0.0770 C.3       1 <0>        -0.1393
      2 C2          4.6192   -4.9498    1.2444 C.ar      1 <0>        -0.1030
      3 C3          5.1531   -5.6581    2.3213 C.ar      1 <0>         0.1239
      4 C4          4.4153   -6.0060    3.4078 C.ar      1 <0>        -0.2106
      5 C5          3.0547   -5.6568    3.4888 C.ar      1 <0>         0.3352
      6 N1          2.3408   -6.0030    4.5598 N.am      1 <0>        -0.5950
      7 C6          1.0593   -5.7076    4.6998 C.2       1 <0>         0.4971
      8 O1          0.4594   -6.0506    5.7010 O.2       1 <0>        -0.4025
      9 C7          0.3429   -4.9413    3.6108 C.3       1 <0>        -0.1660
     10 H1         -0.0628   -4.0316    4.0535 H         1 <0>         0.2276
     11 C8          1.1507   -4.5447    2.3906 C.2       1 <0>         0.0812
     12 C9          2.4643   -4.9085    2.3655 C.ar      1 <0>        -0.1531
     13 C10         3.3178   -4.5618    1.2285 C.ar      1 <0>        -0.0025
     14 C11        -0.8362   -5.7928    3.1357 C.3       1 <0>        -0.0011
     15 H2         -1.0477   -5.5694    2.0900 H         1 <0>         0.1829
     16 C12        -2.0691   -5.4754    3.9844 C.3       1 <0>         0.1324
     17 H3         -1.8321   -5.5605    5.0449 H         1 <0>         0.1773
     18 N2         -3.1781   -6.3728    3.6332 N.2       1 <0>        -0.3031
     19 N3         -4.1196   -5.6975    3.2121 N.2       1 <0>         0.1496
     20 N4         -3.8445   -4.3305    3.2013 N.pl3     1 <0>        -0.4697
     21 N5         -2.5732   -4.1208    3.6756 N.3       1 <0>        -0.2531
     22 C13        -1.7343   -3.4650    2.6635 C.3       1 <0>        -0.0171
     23 C14        -2.0773   -1.9629    2.5855 C.3       1 <0>        -0.1117
     24 C15        -1.9618   -1.6247    1.0784 C.3       1 <0>        -0.1290
     25 C16        -2.5377   -2.8917    0.3987 C.3       1 <0>        -0.1193
     26 C17        -2.0271   -4.0555    1.2731 C.3       1 <0>        -0.1711
     27 N6         -0.4997   -7.2160    3.2740 N.4       1 <0>        -0.3857
     28 C18         0.4282   -7.6060    2.2041 C.3       1 <0>         0.0311
     29 C19        -0.1887   -7.2928    0.8653 C.ar      1 <0>        -0.2173
     30 C20        -1.3431   -7.9424    0.4550 C.ar      1 <0>        -0.0603
     31 C21        -1.8752   -7.6224   -0.7845 C.ar      1 <0>        -0.1459
     32 C22        -1.2419   -6.6732   -1.5646 C.ar      1 <0>         0.1439
     33 N7         -0.1450   -6.0758   -1.1422 N.ar      1 <0>        -0.4566
     34 C23         0.3856   -6.3506    0.0334 C.ar      1 <0>         0.1053
     35 C24        -1.7249   -8.0206    3.1770 C.3       1 <0>         0.0606
     36 C25        -1.3670   -9.4844    3.1908 C.2       1 <0>        -0.1310
     37 C26        -1.3791  -10.2871    4.2701 C.2       1 <0>        -0.1155
     38 C27        -0.9778  -11.5697    3.8312 C.2       1 <0>        -0.2140
     39 C28        -0.7444  -11.4741    2.5099 C.2       1 <0>         0.0189
     40 O2         -0.9874  -10.2101    2.1264 O.3       1 <0>        -0.1773
     41 H4          5.9784   -3.6360    0.2541 H         1 <0>         0.1017
     42 H5          6.2757   -5.3671   -0.0347 H         1 <0>         0.0936
     43 H6          4.9082   -4.5537   -0.8326 H         1 <0>         0.0926
     44 H7          6.1947   -5.9415    2.2898 H         1 <0>         0.1832
     45 H8          4.8766   -6.5550    4.2153 H         1 <0>         0.1858
     46 H9          0.7037   -3.9963    1.5746 H         1 <0>         0.2109
     47 H10         2.9189   -4.0103    0.3899 H         1 <0>         0.1870
     48 H11        -4.4550   -3.6370    2.9059 H         1 <0>         0.4717
     49 H12        -0.6807   -3.5958    2.9105 H         1 <0>         0.0974
     50 H13        -3.0926   -1.7846    2.9398 H         1 <0>         0.0889
     51 H14        -1.3621   -1.3778    3.1637 H         1 <0>         0.0885
     52 H15        -2.5609   -0.7481    0.8322 H         1 <0>         0.0908
     53 H16        -0.9201   -1.4740    0.7951 H         1 <0>         0.0746
     54 H17        -3.6274   -2.8633    0.3998 H         1 <0>         0.0809
     55 H18        -2.1586   -2.9844   -0.6191 H         1 <0>         0.0835
     56 H19        -1.1154   -4.4722    0.8449 H         1 <0>         0.0649
     57 H20        -2.7916   -4.8287    1.3492 H         1 <0>         0.0774
     58 H21         1.3611   -7.0527    2.3126 H         1 <0>         0.1064
     59 H22         0.6301   -8.6751    2.2699 H         1 <0>         0.1641
     60 H23        -1.8162   -8.6803    1.0859 H         1 <0>         0.1609
     61 H24        -2.7730   -8.1088   -1.1362 H         1 <0>         0.1612
     62 H25        -1.6501   -6.4182   -2.5315 H         1 <0>         0.1814
     63 H26         1.2821   -5.8368    0.3477 H         1 <0>         0.1453
     64 H27        -2.3742   -7.7973    4.0236 H         1 <0>         0.2096
     65 H28        -2.2436   -7.7821    2.2485 H         1 <0>         0.1541
     66 H29        -1.6440  -10.0056    5.2786 H         1 <0>         0.1655
     67 H30        -0.8775  -12.4561    4.4400 H         1 <0>         0.1685
     68 H31        -0.4206  -12.2784    1.8659 H         1 <0>         0.2217
     69 H32         2.7818   -6.4952    5.2699 H         1 <0>         0.4540
     70 H33        -0.0643   -7.3730    4.1706 H         1 <0>         0.4179
@<TRIPOS>BOND
     1    1    2 1
     2    1   41 1
     3    1   42 1
     4    1   43 1
     5    2   13 ar
     6    2    3 ar
     7    3    4 ar
     8    3   44 1
     9    4    5 ar
    10    4   45 1
    11    5   12 ar
    12    5    6 2
    13    6    7 am
    14    6   69 1
    15    7    8 2
    16    7    9 1
    17    9   10 1
    18    9   11 1
    19    9   14 1
    20   11   12 2
    21   11   46 1
    22   12   13 ar
    23   13   47 1
    24   14   15 1
    25   14   16 1
    26   14   27 1
    27   16   17 1
    28   16   21 1
    29   16   18 1
    30   18   19 2
    31   19   20 1
    32   20   21 1
    33   20   48 1
    34   21   22 1
    35   22   26 1
    36   22   23 1
    37   22   49 1
    38   23   24 1
    39   23   50 1
    40   23   51 1
    41   24   25 1
    42   24   52 1
    43   24   53 1
    44   25   26 1
    45   25   54 1
    46   25   55 1
    47   26   56 1
    48   26   57 1
    49   27   28 1
    50   27   35 1
    51   27   70 1
    52   28   29 1
    53   28   58 1
    54   28   59 1
    55   29   34 ar
    56   29   30 ar
    57   30   31 ar
    58   30   60 1
    59   31   32 ar
    60   31   61 1
    61   32   33 ar
    62   32   62 1
    63   33   34 ar
    64   34   63 1
    65   35   36 1
    66   35   64 1
    67   35   65 1
    68   36   40 1
    69   36   37 2
    70   37   38 1
    71   37   66 1
    72   38   39 2
    73   38   67 1
    74   39   40 1
    75   39   68 1
@<TRIPOS>MOLECULE
ZINC39711374
   73    77     0     0     0
SMALL
USER_CHARGES

@<TRIPOS>ATOM
      1 C1         -0.3471    1.8116   -0.0263 C.3       1 <0>        -0.1130
      2 C2         -0.5017    0.3130   -0.0618 C.ar      1 <0>        -0.0756
      3 C3         -0.6584   -0.3372   -1.2704 C.ar      1 <0>        -0.0965
      4 C4         -0.8004   -1.7119   -1.3045 C.ar      1 <0>        -0.0926
      5 C5         -0.7859   -2.4415   -0.1281 C.ar      1 <0>        -0.0351
      6 C6         -0.6298   -1.7967    1.0842 C.ar      1 <0>        -0.1100
      7 C7         -0.4809   -0.4161    1.1203 C.ar      1 <0>         0.1496
      8 N1         -0.3162    0.2383    2.3432 N.pl3     1 <0>        -0.6679
      9 C8         -1.4787    0.7143    3.1089 C.3       1 <0>         0.1232
     10 C9         -1.3484    0.2136    4.5512 C.3       1 <0>        -0.0332
     11 N2         -0.0508    0.6304    5.0976 N.4       1 <0>        -0.3773
     12 C10         1.0366   -0.0187    4.3544 C.3       1 <0>        -0.0519
     13 C11         1.0242    0.4655    2.9051 C.3       1 <0>         0.1226
     14 C12         0.0285    0.2461    6.5133 C.3       1 <0>         0.0666
     15 H1          0.0702   -0.8402    6.5931 H         1 <0>         0.1825
     16 C13        -1.2066    0.7647    7.2525 C.3       1 <0>        -0.1554
     17 H2         -2.0865    0.3809    6.7363 H         1 <0>         0.1945
     18 C14        -1.1935    0.1761    8.6493 C.2       1 <0>         0.0767
     19 C15        -1.1948    1.0469    9.6949 C.ar      1 <0>        -0.1583
     20 C16        -1.1822    0.5577   11.0756 C.ar      1 <0>         0.0500
     21 C17        -1.1836    1.4540   12.0912 C.ar      1 <0>        -0.2284
     22 C18        -1.1968    2.8349   11.8443 C.ar      1 <0>         0.3496
     23 C19        -1.2086    3.3541   10.5683 C.ar      1 <0>        -0.2603
     24 C20        -1.2086    2.5018    9.4562 C.ar      1 <0>         0.3499
     25 N3         -1.2209    3.0162    8.2240 N.am      1 <0>        -0.5840
     26 C21        -1.2196    2.2719    7.1331 C.2       1 <0>         0.5379
     27 O1         -1.2295    2.7977    6.0358 O.2       1 <0>        -0.4450
     28 O2         -1.1976    3.6872   12.8970 O.3       1 <0>        -0.2537
     29 C22        -1.1847    3.1059   14.2024 C.3       1 <0>        -0.0027
     30 C23         1.2877    0.8520    7.1364 C.3       1 <0>         0.1006
     31 H3          1.2704    0.7323    8.2197 H         1 <0>         0.1460
     32 N4          1.4040    2.2724    6.7793 N.2       1 <0>        -0.2975
     33 N5          2.4466    2.4396    6.1431 N.2       1 <0>         0.1477
     34 N6          3.1693    1.2602    5.9664 N.pl3     1 <0>        -0.4885
     35 N7          2.4984    0.2238    6.5672 N.3       1 <0>        -0.2863
     36 C24         3.3150   -0.3950    7.6200 C.3       1 <0>         0.0612
     37 C25         2.4797   -1.4366    8.3672 C.3       1 <0>        -0.1496
     38 C26         4.5317   -1.0745    6.9885 C.3       1 <0>        -0.1470
     39 C27         3.7839    0.6817    8.6007 C.3       1 <0>        -0.1835
     40 Cl1        -0.9645   -4.1676   -0.1758 Cl        1 <0>        -0.0539
     41 H4          0.7094    2.0698   -0.0993 H         1 <0>         0.0738
     42 H5         -0.8876    2.2526   -0.8639 H         1 <0>         0.0738
     43 H6         -0.7513    2.1965    0.9100 H         1 <0>         0.0647
     44 H7         -0.6705    0.2291   -2.1899 H         1 <0>         0.1408
     45 H8         -0.9232   -2.2177   -2.2508 H         1 <0>         0.1420
     46 H9         -0.6189   -2.3659    2.0019 H         1 <0>         0.1292
     47 H10        -1.5017    1.8040    3.1001 H         1 <0>         0.0842
     48 H11        -2.3943    0.3221    2.6663 H         1 <0>         0.1228
     49 H12        -2.1504    0.6363    5.1564 H         1 <0>         0.1285
     50 H13        -1.4165   -0.8741    4.5658 H         1 <0>         0.1403
     51 H14         1.9921    0.2328    4.8147 H         1 <0>         0.1697
     52 H15         0.8963   -1.0994    4.3750 H         1 <0>         0.1350
     53 H16         1.7625   -0.0911    2.3279 H         1 <0>         0.1213
     54 H17         1.2582    1.5297    2.8754 H         1 <0>         0.0761
     55 H18        -1.1832   -0.8921    8.8083 H         1 <0>         0.2086
     56 H19        -1.1723   -0.5026   11.2808 H         1 <0>         0.1882
     57 H20        -1.1746    1.0985   13.1110 H         1 <0>         0.1808
     58 H21        -1.2185    4.4244   10.4243 H         1 <0>         0.1845
     59 H22        -2.0686    2.4812   14.3307 H         1 <0>         0.0892
     60 H23        -0.2888    2.4963   14.3198 H         1 <0>         0.0878
     61 H24        -1.1868    3.8969   14.9523 H         1 <0>         0.1375
     62 H25         4.0132    1.1839    5.4942 H         1 <0>         0.4727
     63 H26         2.2103   -2.2432    7.6855 H         1 <0>         0.0813
     64 H27         3.0601   -1.8405    9.1967 H         1 <0>         0.0923
     65 H28         1.5739   -0.9680    8.7518 H         1 <0>         0.0464
     66 H29         5.1731   -0.3203    6.5326 H         1 <0>         0.0640
     67 H30         5.0893   -1.6089    7.7577 H         1 <0>         0.0863
     68 H31         4.1995   -1.7784    6.2255 H         1 <0>         0.0779
     69 H32         2.9171    1.1658    9.0506 H         1 <0>         0.0497
     70 H33         4.3898    0.2226    9.3819 H         1 <0>         0.0905
     71 H34         4.3789    1.4238    8.0684 H         1 <0>         0.0710
     72 H35        -1.2303    3.9812    8.1258 H         1 <0>         0.4490
     73 H36         0.0402    1.6321    5.0180 H         1 <0>         0.4285
@<TRIPOS>BOND
     1    1    2 1
     2    1   41 1
     3    1   42 1
     4    1   43 1
     5    2    7 ar
     6    2    3 ar
     7    3    4 ar
     8    3   44 1
     9    4    5 ar
    10    4   45 1
    11    5    6 ar
    12    5   40 1
    13    6    7 ar
    14    6   46 1
    15    7    8 1
    16    8   13 1
    17    8    9 1
    18    9   10 1
    19    9   47 1
    20    9   48 1
    21   10   11 1
    22   10   49 1
    23   10   50 1
    24   11   12 1
    25   11   14 1
    26   11   73 1
    27   12   13 1
    28   12   51 1
    29   12   52 1
    30   13   53 1
    31   13   54 1
    32   14   15 1
    33   14   16 1
    34   14   30 1
    35   16   17 1
    36   16   26 1
    37   16   18 1
    38   18   19 2
    39   18   55 1
    40   19   24 ar
    41   19   20 ar
    42   20   21 ar
    43   20   56 1
    44   21   22 ar
    45   21   57 1
    46   22   23 ar
    47   22   28 1
    48   23   24 ar
    49   23   58 1
    50   24   25 2
    51   25   26 am
    52   25   72 1
    53   26   27 2
    54   28   29 1
    55   29   59 1
    56   29   60 1
    57   29   61 1
    58   30   31 1
    59   30   35 1
    60   30   32 1
    61   32   33 2
    62   33   34 1
    63   34   35 1
    64   34   62 1
    65   35   36 1
    66   36   37 1
    67   36   38 1
    68   36   39 1
    69   37   63 1
    70   37   64 1
    71   37   65 1
    72   38   66 1
    73   38   67 1
    74   38   68 1
    75   39   69 1
    76   39   70 1
    77   39   71 1
@<TRIPOS>MOLECULE
ZINC63739226
   79    82     0     0     0
SMALL
USER_CHARGES

@<TRIPOS>ATOM
      1 C1          0.0543    1.5177    0.0539 C.3       1 <0>        -0.1830
      2 C2         -0.0036   -0.0099   -0.0074 C.3       1 <0>         0.0238
      3 H1         -1.0438   -0.3326   -0.0520 H         1 <0>         0.1437
      4 C3          0.7359   -0.4987   -1.2544 C.3       1 <0>        -0.1635
      5 C4          0.5770   -2.0153   -1.3800 C.3       1 <0>         0.1055
      6 N1          1.1750   -2.4664   -2.6390 N.am      1 <0>        -0.7322
      7 C5          1.1530   -3.7739   -2.9651 C.2       1 <0>         0.5218
      8 O1          0.6382   -4.5771   -2.2163 O.2       1 <0>        -0.5248
      9 C6          1.7681   -4.2379   -4.2602 C.3       1 <0>        -0.1061
     10 H2          1.2669   -3.7496   -5.0960 H         1 <0>         0.1021
     11 C7          3.2551   -3.8779   -4.2764 C.3       1 <0>        -0.1505
     12 C8          1.6092   -5.7545   -4.3858 C.3       1 <0>        -0.0690
     13 C9          0.1218   -6.1144   -4.3679 C.3       1 <0>        -0.1406
     14 C10        -0.0324   -7.6359   -4.4589 C.3       1 <0>         0.1125
     15 N2          0.6900   -8.1142   -5.6455 N.am      1 <0>        -0.5935
     16 C11         2.1037   -7.7481   -5.8073 C.3       1 <0>         0.0866
     17 C12         2.2339   -6.2254   -5.7011 C.3       1 <0>        -0.1388
     18 C13         0.0678   -8.8748   -6.5680 C.2       1 <0>         0.5233
     19 O2         -1.0994   -9.1706   -6.4228 O.2       1 <0>        -0.4999
     20 C14         0.8224   -9.3577   -7.7797 C.3       1 <0>         0.0749
     21 H3          1.6781   -9.9596   -7.4736 H         1 <0>         0.1924
     22 C15         1.2833   -8.1808   -8.6098 C.2       1 <0>         0.0168
     23 C16         0.6958   -8.3202   -9.8186 C.ar      1 <0>        -0.1537
     24 C17         0.7434   -7.5126  -11.0446 C.ar      1 <0>         0.0224
     25 C18         0.0327   -7.9113  -12.1213 C.ar      1 <0>        -0.2066
     26 C19        -0.7514   -9.0804  -12.0967 C.ar      1 <0>         0.3030
     27 C20        -0.8431   -9.8745  -10.9997 C.ar      1 <0>        -0.2706
     28 C21        -0.1358   -9.5456   -9.8165 C.ar      1 <0>         0.3563
     29 N3         -0.0632  -10.1423   -8.6473 N.pl3     1 <0>        -0.5701
     30 O3         -1.4417   -9.4261  -13.2115 O.3       1 <0>        -0.2782
     31 C22        -1.3187   -8.5637  -14.3443 C.3       1 <0>         0.0067
     32 N4          0.6327   -0.5725    1.1912 N.4       1 <0>        -0.3658
     33 C23        -0.2256   -0.2919    2.3586 C.3       1 <0>        -0.0051
     34 C24         0.0641   -1.3250    3.4185 C.3       1 <0>        -0.1494
     35 C25         1.0862   -0.8057    4.4470 C.3       1 <0>        -0.1315
     36 C26         2.2225   -0.0103    3.7731 C.3       1 <0>        -0.1395
     37 C27         2.6924   -0.6528    2.4931 C.3       1 <0>        -0.1338
     38 C28         1.9176   -0.0396    1.3079 C.3       1 <0>        -0.0452
     39 H4          1.0913    1.8453   -0.0203 H         1 <0>         0.0851
     40 H5         -0.5191    1.9365   -0.7732 H         1 <0>         0.1066
     41 H6         -0.3680    1.8597    0.9987 H         1 <0>         0.0851
     42 H7          0.3181   -0.0153   -2.1375 H         1 <0>         0.1214
     43 H8          1.7938   -0.2500   -1.1704 H         1 <0>         0.0984
     44 H9          1.0782   -2.5036   -0.5442 H         1 <0>         0.0619
     45 H10        -0.4823   -2.2718   -1.3685 H         1 <0>         0.0827
     46 H11         1.5867   -1.8240   -3.2380 H         1 <0>         0.4074
     47 H12         3.7000   -4.2135   -5.2132 H         1 <0>         0.0769
     48 H13         3.3683   -2.7975   -4.1870 H         1 <0>         0.0619
     49 H14         3.7562   -4.3662   -3.4407 H         1 <0>         0.0654
     50 H15         2.1108   -6.2426   -3.5502 H         1 <0>         0.0875
     51 H16        -0.3276   -5.7580   -3.4410 H         1 <0>         0.1083
     52 H17        -0.3759   -5.6469   -5.2174 H         1 <0>         0.0631
     53 H18         0.3853   -8.0996   -3.5653 H         1 <0>         0.0833
     54 H19        -1.0883   -7.8916   -4.5462 H         1 <0>         0.0994
     55 H20         2.6956   -8.2210   -5.0236 H         1 <0>         0.0933
     56 H21         2.4571   -8.0778   -6.7842 H         1 <0>         0.0848
     57 H22         1.7163   -5.7568   -6.5381 H         1 <0>         0.0726
     58 H23         3.2878   -5.9480   -5.7232 H         1 <0>         0.0940
     59 H24         1.9482   -7.3885   -8.2991 H         1 <0>         0.2120
     60 H25         1.3384   -6.6121  -11.0842 H         1 <0>         0.1735
     61 H26         0.0663   -7.3185  -13.0235 H         1 <0>         0.1695
     62 H27        -1.4584  -10.7616  -11.0286 H         1 <0>         0.1709
     63 H28        -0.2738   -8.5131  -14.6507 H         1 <0>         0.0781
     64 H29        -1.9196   -8.9545  -15.1654 H         1 <0>         0.1265
     65 H30        -1.6687   -7.5657  -14.0808 H         1 <0>         0.0772
     66 H31        -0.0057    0.7031    2.7455 H         1 <0>         0.1350
     67 H32        -1.2740   -0.3496    2.0661 H         1 <0>         0.1344
     68 H33        -0.8630   -1.5769    3.9334 H         1 <0>         0.1097
     69 H34         0.4613   -2.2217    2.9430 H         1 <0>         0.0800
     70 H35         0.5751   -0.1595    5.1606 H         1 <0>         0.0819
     71 H36         1.5146   -1.6537    4.9813 H         1 <0>         0.0824
     72 H37         1.8666    0.9961    3.5531 H         1 <0>         0.0695
     73 H38         3.0634    0.0576    4.4634 H         1 <0>         0.0877
     74 H39         3.7594   -0.4710    2.3642 H         1 <0>         0.1090
     75 H40         2.5065   -1.7260    2.5341 H         1 <0>         0.0854
     76 H41         2.4670   -0.2341    0.3868 H         1 <0>         0.1287
     77 H42         1.8425    1.0380    1.4531 H         1 <0>         0.1336
     78 H43        -0.5181  -10.9624   -8.3993 H         1 <0>         0.4605
     79 H44         0.7061   -1.5725    1.0786 H         1 <0>         0.4153
@<TRIPOS>BOND
     1    1    2 1
     2    1   39 1
     3    1   40 1
     4    1   41 1
     5    2    3 1
     6    2    4 1
     7    2   32 1
     8    4    5 1
     9    4   42 1
    10    4   43 1
    11    5    6 1
    12    5   44 1
    13    5   45 1
    14    6    7 am
    15    6   46 1
    16    7    8 2
    17    7    9 1
    18    9   10 1
    19    9   11 1
    20    9   12 1
    21   11   47 1
    22   11   48 1
    23   11   49 1
    24   12   17 1
    25   12   13 1
    26   12   50 1
    27   13   14 1
    28   13   51 1
    29   13   52 1
    30   14   15 1
    31   14   53 1
    32   14   54 1
    33   15   16 1
    34   15   18 am
    35   16   17 1
    36   16   55 1
    37   16   56 1
    38   17   57 1
    39   17   58 1
    40   18   19 2
    41   18   20 1
    42   20   21 1
    43   20   29 1
    44   20   22 1
    45   22   23 2
    46   22   59 1
    47   23   28 ar
    48   23   24 ar
    49   24   25 ar
    50   24   60 1
    51   25   26 ar
    52   25   61 1
    53   26   27 ar
    54   26   30 1
    55   27   28 ar
    56   27   62 1
    57   28   29 2
    58   29   78 1
    59   30   31 1
    60   31   63 1
    61   31   64 1
    62   31   65 1
    63   32   38 1
    64   32   33 1
    65   32   79 1
    66   33   34 1
    67   33   66 1
    68   33   67 1
    69   34   35 1
    70   34   68 1
    71   34   69 1
    72   35   36 1
    73   35   70 1
    74   35   71 1
    75   36   37 1
    76   36   72 1
    77   36   73 1
    78   37   38 1
    79   37   74 1
    80   37   75 1
    81   38   76 1
    82   38   77 1
@<TRIPOS>MOLECULE
ZINC64131746
   64    69     0     0     0
SMALL
USER_CHARGES

@<TRIPOS>ATOM
      1 C1          0.9695    0.4997   -0.1827 C.ar      1 <0>        -0.1064
      2 C2          2.2459    1.0318   -0.1840 C.ar      1 <0>        -0.0965
      3 C3          3.3463    0.1938   -0.1138 C.ar      1 <0>         0.0396
      4 C4          3.1635   -1.1854   -0.0416 C.ar      1 <0>         0.0378
      5 C5          1.8822   -1.7113   -0.0409 C.ar      1 <0>        -0.0934
      6 C6          0.7882   -0.8686   -0.1110 C.ar      1 <0>        -0.0840
      7 C7         -0.6049   -1.4433   -0.1099 C.3       1 <0>        -0.0781
      8 C8         -1.0446   -1.7174   -1.5495 C.3       1 <0>         0.1658
      9 C9         -0.9613   -0.4236   -2.3895 C.3       1 <0>        -0.1341
     10 C10        -0.5146   -0.9694   -3.7656 C.3       1 <0>        -0.1581
     11 C11         0.1882   -2.2686   -3.4390 C.2       1 <0>         0.5224
     12 O1          0.9249   -2.8684   -4.1930 O.2       1 <0>        -0.5236
     13 N1         -0.1219   -2.6611   -2.1914 N.am      1 <0>        -0.7253
     14 C12        -2.4699   -2.2735   -1.5703 C.3       1 <0>        -0.1090
     15 C13        -2.5233   -3.5701   -0.7598 C.3       1 <0>        -0.1434
     16 C14        -3.9271   -4.1178   -0.7802 C.2       1 <0>         0.5352
     17 O2         -4.7990   -3.5290   -1.3836 O.2       1 <0>        -0.5118
     18 N2         -4.2137   -5.2618   -0.1280 N.am      1 <0>        -0.6253
     19 C15        -3.2376   -6.1260    0.5605 C.3       1 <0>         0.0832
     20 C16        -4.0663   -6.8947    1.6197 C.3       1 <0>        -0.1281
     21 C17        -5.3962   -7.1377    0.8583 C.3       1 <0>        -0.1533
     22 C18        -5.5523   -5.8515    0.0202 C.3       1 <0>         0.1278
     23 H1         -6.2114   -5.1507    0.5325 H         1 <0>         0.1594
     24 C19        -6.1240   -6.1968   -1.3563 C.3       1 <0>         0.2327
     25 H2         -6.2097   -5.2950   -1.9625 H         1 <0>         0.2489
     26 N3         -7.4393   -6.8329   -1.2106 N.pl3     1 <0>        -0.4433
     27 C20        -7.3572   -8.0240   -1.7277 C.ar      1 <0>         0.3165
     28 C21        -8.3292   -9.1169   -1.8771 C.ar      1 <0>        -0.0935
     29 C22        -7.9516  -10.2666   -2.4689 C.ar      1 <0>        -0.0104
     30 C23        -6.6468  -10.4745   -2.9597 C.ar      1 <0>         0.2824
     31 C24        -5.6791   -9.5354   -2.8725 C.ar      1 <0>        -0.2071
     32 C25        -5.9789   -8.2430   -2.2460 C.ar      1 <0>         0.3251
     33 N4         -5.2612   -7.1761   -2.0291 N.pl3     1 <0>        -0.4697
     34 F1         -6.3521  -11.6587   -3.5395 F         1 <0>        -0.0473
     35 O3          4.3882   -1.7851    0.0180 O.3       1 <0>        -0.3082
     36 C26         5.3264   -0.7888   -0.4296 C.3       1 <0>         0.2128
     37 O4          4.6855    0.4575   -0.0994 O.3       1 <0>        -0.3044
     38 H3          0.1125    1.1549   -0.2333 H         1 <0>         0.1413
     39 H4          2.3847    2.1014   -0.2401 H         1 <0>         0.1407
     40 H5          1.7375   -2.7801    0.0151 H         1 <0>         0.1268
     41 H6         -0.6133   -2.3747    0.4561 H         1 <0>         0.0785
     42 H7         -1.2910   -0.7322    0.3503 H         1 <0>         0.0979
     43 H8         -1.9358    0.0596   -2.4592 H         1 <0>         0.0953
     44 H9         -0.2170    0.2597   -1.9806 H         1 <0>         0.1013
     45 H10        -1.3800   -1.1533   -4.4023 H         1 <0>         0.1034
     46 H11         0.1733   -0.2740   -4.2467 H         1 <0>         0.1068
     47 H12         0.2203   -3.4647   -1.7694 H         1 <0>         0.4039
     48 H13        -3.1511   -1.5434   -1.1331 H         1 <0>         0.0937
     49 H14        -2.7660   -2.4759   -2.5995 H         1 <0>         0.0812
     50 H15        -1.8421   -4.3001   -1.1970 H         1 <0>         0.1049
     51 H16        -2.2272   -3.3677    0.2695 H         1 <0>         0.1168
     52 H17        -2.7838   -6.8224   -0.1447 H         1 <0>         0.0834
     53 H18        -2.4707   -5.5213    1.0445 H         1 <0>         0.1141
     54 H19        -3.5875   -7.8384    1.8808 H         1 <0>         0.1124
     55 H20        -4.2302   -6.2830    2.5068 H         1 <0>         0.1052
     56 H21        -5.3178   -8.0143    0.2153 H         1 <0>         0.0668
     57 H22        -6.2266   -7.2434    1.5565 H         1 <0>         0.1207
     58 H23        -9.3396   -8.9988   -1.5143 H         1 <0>         0.2197
     59 H24        -8.6769  -11.0603   -2.5709 H         1 <0>         0.2177
     60 H25        -4.6914   -9.7350   -3.2611 H         1 <0>         0.2146
     61 H26         6.2721   -0.8863    0.1035 H         1 <0>         0.1379
     62 H27         5.4826   -0.8658   -1.5057 H         1 <0>         0.0891
     63 H28        -8.2256   -6.4374   -0.8029 H         1 <0>         0.4985
     64 H29        -4.3293   -7.0518   -2.2677 H         1 <0>         0.4925
@<TRIPOS>BOND
     1    1    6 ar
     2    1    2 ar
     3    1   38 1
     4    2    3 ar
     5    2   39 1
     6    3   37 1
     7    3    4 ar
     8    4    5 ar
     9    4   35 1
    10    5    6 ar
    11    5   40 1
    12    6    7 1
    13    7    8 1
    14    7   41 1
    15    7   42 1
    16    8   13 1
    17    8    9 1
    18    8   14 1
    19    9   10 1
    20    9   43 1
    21    9   44 1
    22   10   11 1
    23   10   45 1
    24   10   46 1
    25   11   12 2
    26   11   13 am
    27   13   47 1
    28   14   15 1
    29   14   48 1
    30   14   49 1
    31   15   16 1
    32   15   50 1
    33   15   51 1
    34   16   17 2
    35   16   18 am
    36   18   22 1
    37   18   19 1
    38   19   20 1
    39   19   52 1
    40   19   53 1
    41   20   21 1
    42   20   54 1
    43   20   55 1
    44   21   22 1
    45   21   56 1
    46   21   57 1
    47   22   23 1
    48   22   24 1
    49   24   25 1
    50   24   33 1
    51   24   26 1
    52   26   27 2
    53   26   63 1
    54   27   32 ar
    55   27   28 ar
    56   28   29 ar
    57   28   58 1
    58   29   30 ar
    59   29   59 1
    60   30   31 ar
    61   30   34 1
    62   31   32 ar
    63   31   60 1
    64   32   33 2
    65   33   64 1
    66   35   36 1
    67   36   37 1
    68   36   61 1
    69   36   62 1
@<TRIPOS>MOLECULE
ZINC03340465
   53    56     0     0     0
SMALL
USER_CHARGES
N-[1-(1H-benzoimidazol-2-yl)-3-methylsulfanyl-propyl]-6-oxo-1-(2,3,5,6-tetrafluorophenyl)-2,5-dihydropyridazine-3-carboxamide
@<TRIPOS>ATOM
      1 C1         -1.2445    7.9423   -3.9351 C.3       1 <0>        -0.1174
      2 S1         -1.0443    6.6276   -5.1688 S.3       1 <0>        -0.2680
      3 C2         -1.9534    5.2240   -4.4659 C.3       1 <0>        -0.0770
      4 C3         -1.8647    4.0302   -5.4187 C.3       1 <0>        -0.1069
      5 C4         -2.6316    2.8464   -4.8258 C.3       1 <0>         0.2393
      6 H1         -3.6545    3.1505   -4.6042 H         1 <0>         0.1293
      7 C5         -2.6485    1.7116   -5.8173 C.2       1 <0>         0.2723
      8 N1         -2.2138    0.4479   -5.5628 N.pl3     1 <0>        -0.6001
      9 H2         -1.8322    0.1147   -4.7006 H         1 <0>         0.4239
     10 C6         -2.3972   -0.2893   -6.7156 C.ar      1 <0>         0.0540
     11 C7         -2.1523   -1.6096   -7.0680 C.ar      1 <0>        -0.1135
     12 C8         -2.4532   -2.0435   -8.3414 C.ar      1 <0>        -0.0945
     13 C9         -2.9976   -1.1695   -9.2718 C.ar      1 <0>        -0.1256
     14 C10        -3.2453    0.1329   -8.9429 C.ar      1 <0>        -0.0596
     15 C11        -2.9488    0.5950   -7.6578 C.ar      1 <0>         0.0473
     16 N2         -3.0757    1.7991   -7.0431 N.2       1 <0>        -0.4683
     17 N3         -1.9744    2.4074   -3.5923 N.am      1 <0>        -0.7207
     18 C12        -2.2622    3.0130   -2.4231 C.2       1 <0>         0.5734
     19 O1         -3.0672    3.9237   -2.3922 O.2       1 <0>        -0.5099
     20 C13        -1.6002    2.5707   -1.1803 C.2       1 <0>         0.1229
     21 C14        -0.7209    1.5741   -1.2213 C.2       1 <0>        -0.2068
     22 C15        -0.0127    1.0858    0.0080 C.3       1 <0>        -0.0821
     23 C16        -0.6974    1.5610    1.2562 C.2       1 <0>         0.5284
     24 O2         -0.4507    1.0137    2.3102 O.2       1 <0>        -0.5073
     25 N4         -1.5749    2.5772    1.2380 N.am      1 <0>        -0.3602
     26 N5         -1.9034    3.2040    0.0290 N.pl3     1 <0>        -0.5253
     27 C17        -2.1661    3.0112    2.4325 C.ar      1 <0>         0.1045
     28 C18        -1.5573    4.0047    3.1896 C.ar      1 <0>         0.1141
     29 C19        -2.1464    4.4354    4.3668 C.ar      1 <0>         0.0991
     30 C20        -3.3351    3.8693    4.7951 C.ar      1 <0>        -0.1126
     31 C21        -3.9412    2.8755    4.0454 C.ar      1 <0>         0.0988
     32 C22        -3.3591    2.4448    2.8646 C.ar      1 <0>         0.1169
     33 F1         -3.9505    1.4744    2.1340 F         1 <0>        -0.0997
     34 F2         -5.1011    2.3252    4.4661 F         1 <0>        -0.1034
     35 F3         -1.5579    5.4052    5.1006 F         1 <0>        -0.1032
     36 F4         -0.3944    4.5536    2.7752 F         1 <0>        -0.0997
     37 H3         -0.8239    7.6153   -2.9842 H         1 <0>         0.0745
     38 H4         -0.7255    8.8394   -4.2727 H         1 <0>         0.1022
     39 H5         -2.3044    8.1621   -3.8072 H         1 <0>         0.0773
     40 H6         -2.9985    5.5010   -4.3268 H         1 <0>         0.0914
     41 H7         -1.5180    4.9541   -3.5038 H         1 <0>         0.0810
     42 H8         -0.8197    3.7532   -5.5578 H         1 <0>         0.0809
     43 H9         -2.3002    4.3001   -6.3808 H         1 <0>         0.1046
     44 H10        -1.7284   -2.2937   -6.3478 H         1 <0>         0.1250
     45 H11        -2.2636   -3.0704   -8.6170 H         1 <0>         0.1329
     46 H12        -3.2281   -1.5228  -10.2660 H         1 <0>         0.1324
     47 H13        -3.6699    0.8043   -9.6745 H         1 <0>         0.1323
     48 H14        -1.3322    1.6809   -3.6170 H         1 <0>         0.4012
     49 H15        -0.5100    1.1012   -2.1691 H         1 <0>         0.1382
     50 H16         0.0021   -0.0041    0.0020 H         1 <0>         0.1222
     51 H17         1.0123    1.4564    0.0002 H         1 <0>         0.1228
     52 H18        -2.3383    4.0710    0.0308 H         1 <0>         0.4368
     53 H19        -3.7906    4.2037    5.7154 H         1 <0>         0.1817
@<TRIPOS>BOND
     1    1    2 1
     2    1   37 1
     3    1   38 1
     4    1   39 1
     5    2    3 1
     6    3    4 1
     7    3   40 1
     8    3   41 1
     9    4    5 1
    10    4   42 1
    11    4   43 1
    12    5    6 1
    13    5    7 1
    14    5   17 1
    15    7   16 2
    16    7    8 1
    17    8    9 1
    18    8   10 1
    19   10   15 ar
    20   10   11 ar
    21   11   12 ar
    22   11   44 1
    23   12   13 ar
    24   12   45 1
    25   13   14 ar
    26   13   46 1
    27   14   15 ar
    28   14   47 1
    29   15   16 1
    30   17   18 am
    31   17   48 1
    32   18   19 2
    33   18   20 1
    34   20   26 1
    35   20   21 2
    36   21   22 1
    37   21   49 1
    38   22   23 1
    39   22   50 1
    40   22   51 1
    41   23   24 2
    42   23   25 am
    43   25   26 1
    44   25   27 1
    45   26   52 1
    46   27   32 ar
    47   27   28 ar
    48   28   29 ar
    49   28   36 1
    50   29   30 ar
    51   29   35 1
    52   30   31 ar
    53   30   53 1
    54   31   32 ar
    55   31   34 1
    56   32   33 1
@<TRIPOS>MOLECULE
ZINC09981885
   60    64     0     0     0
SMALL
USER_CHARGES
N-(6-amino-1-benzyl-2,4-dioxo-pyrimidin-5-yl)-N-benzyl-3-methyl-benzofuran-2-carboxamide
@<TRIPOS>ATOM
      1 C1          2.5657   -4.9451   -2.9435 C.3       1 <0>        -0.0990
      2 C2          2.3482   -4.3209   -1.5892 C.2       1 <0>        -0.0649
      3 C3          1.6121   -4.8960   -0.4638 C.ar      1 <0>        -0.1406
      4 C4          0.9237   -6.0945   -0.2611 C.ar      1 <0>        -0.0569
      5 C5          0.3265   -6.3370    0.9436 C.ar      1 <0>        -0.1374
      6 C6          0.3992   -5.4004    1.9659 C.ar      1 <0>        -0.0799
      7 C7          1.0732   -4.2120    1.7859 C.ar      1 <0>        -0.1118
      8 C8          1.6890   -3.9431    0.5689 C.ar      1 <0>         0.0635
      9 O1          2.4069   -2.9003    0.1083 O.3       1 <0>        -0.1761
     10 C9          2.7964   -3.1105   -1.1664 C.2       1 <0>        -0.0414
     11 C10         3.5911   -2.1739   -1.9733 C.2       1 <0>         0.6055
     12 O2          3.8513   -2.4385   -3.1325 O.2       1 <0>        -0.4846
     13 N1          4.0317   -1.0220   -1.4297 N.am      1 <0>        -0.5123
     14 C11         3.6297   -0.6528   -0.0702 C.3       1 <0>         0.1331
     15 C12         2.3610    0.1588   -0.1245 C.ar      1 <0>        -0.1029
     16 C13         1.1358   -0.4777   -0.1924 C.ar      1 <0>        -0.1016
     17 C14        -0.0279    0.2667   -0.2421 C.ar      1 <0>        -0.1209
     18 C15         0.0336    1.6476   -0.2240 C.ar      1 <0>        -0.1118
     19 C16         1.2588    2.2840   -0.1556 C.ar      1 <0>        -0.1219
     20 C17         2.4225    1.5396   -0.1059 C.ar      1 <0>        -0.0980
     21 C18         4.8796   -0.1723   -2.1696 C.2       1 <0>        -0.1408
     22 C19         6.1821    0.0432   -1.7673 C.2       1 <0>         0.4859
     23 N2          6.9866    0.8732   -2.5130 N.am      1 <0>        -0.5331
     24 C20         6.5061    1.4769   -3.6150 C.2       1 <0>         0.7142
     25 O3          7.2317    2.2113   -4.2576 O.2       1 <0>        -0.5327
     26 N3          5.2383    1.2830   -4.0194 N.am      1 <0>        -0.6626
     27 H1          4.9062    1.7434   -4.8426 H         1 <0>         0.4395
     28 C21         4.4104    0.4755   -3.3281 C.2       1 <0>         0.5685
     29 O4          3.2626    0.3065   -3.7035 O.2       1 <0>        -0.5014
     30 C22         8.3729    1.1066   -2.1007 C.3       1 <0>         0.1478
     31 C23         8.4277    2.2912   -1.1709 C.ar      1 <0>        -0.1278
     32 C24         8.6146    3.5623   -1.6811 C.ar      1 <0>        -0.0853
     33 C25         8.6601    4.6495   -0.8285 C.ar      1 <0>        -0.1191
     34 C26         8.5292    4.4645    0.5351 C.ar      1 <0>        -0.1044
     35 C27         8.3476    3.1928    1.0458 C.ar      1 <0>        -0.1200
     36 C28         8.2968    2.1062    0.1928 C.ar      1 <0>        -0.1046
     37 N4          6.6711   -0.5683   -0.6377 N.pl3     1 <0>        -0.8334
     38 H2          3.4825   -5.5344   -2.9290 H         1 <0>         0.0788
     39 H3          1.7220   -5.5915   -3.1854 H         1 <0>         0.0711
     40 H4          2.6498   -4.1608   -3.6958 H         1 <0>         0.0938
     41 H5          0.8640   -6.8264   -1.0531 H         1 <0>         0.1305
     42 H6         -0.2061   -7.2631    1.1015 H         1 <0>         0.1326
     43 H7         -0.0782   -5.6054    2.9127 H         1 <0>         0.1379
     44 H8          1.1226   -3.4910    2.5885 H         1 <0>         0.1354
     45 H9          4.4192   -0.0621    0.3943 H         1 <0>         0.0871
     46 H10         3.4586   -1.5557    0.5160 H         1 <0>         0.1160
     47 H11         1.0877   -1.5565   -0.2069 H         1 <0>         0.1267
     48 H12        -0.9852   -0.2305   -0.2955 H         1 <0>         0.1201
     49 H13        -0.8754    2.2292   -0.2678 H         1 <0>         0.1209
     50 H14         1.3069    3.3629   -0.1418 H         1 <0>         0.1203
     51 H15         3.3797    2.0369   -0.0525 H         1 <0>         0.1146
     52 H16         8.7527    0.2235   -1.5869 H         1 <0>         0.1006
     53 H17         8.9848    1.3065   -2.9803 H         1 <0>         0.1228
     54 H18         8.7213    3.7064   -2.7461 H         1 <0>         0.1336
     55 H19         8.8024    5.6430   -1.2275 H         1 <0>         0.1272
     56 H20         8.5692    5.3134    1.2016 H         1 <0>         0.1259
     57 H21         8.2456    3.0482    2.1112 H         1 <0>         0.1263
     58 H22         8.1553    1.1126    0.5918 H         1 <0>         0.1162
     59 H23         6.1242   -1.2100   -0.1582 H         1 <0>         0.4244
     60 H24         7.5632   -0.3581   -0.3200 H         1 <0>         0.4066
@<TRIPOS>BOND
     1    1    2 1
     2    1   38 1
     3    1   39 1
     4    1   40 1
     5    2   10 2
     6    2    3 1
     7    3    8 ar
     8    3    4 ar
     9    4    5 ar
    10    4   41 1
    11    5    6 ar
    12    5   42 1
    13    6    7 ar
    14    6   43 1
    15    7    8 ar
    16    7   44 1
    17    8    9 1
    18    9   10 1
    19   10   11 1
    20   11   12 2
    21   11   13 am
    22   13   14 1
    23   13   21 1
    24   14   15 1
    25   14   45 1
    26   14   46 1
    27   15   20 ar
    28   15   16 ar
    29   16   17 ar
    30   16   47 1
    31   17   18 ar
    32   17   48 1
    33   18   19 ar
    34   18   49 1
    35   19   20 ar
    36   19   50 1
    37   20   51 1
    38   21   28 1
    39   21   22 2
    40   22   23 1
    41   22   37 1
    42   23   24 am
    43   23   30 1
    44   24   25 2
    45   24   26 am
    46   26   27 1
    47   26   28 am
    48   28   29 2
    49   30   31 1
    50   30   52 1
    51   30   53 1
    52   31   36 ar
    53   31   32 ar
    54   32   33 ar
    55   32   54 1
    56   33   34 ar
    57   33   55 1
    58   34   35 ar
    59   34   56 1
    60   35   36 ar
    61   35   57 1
    62   36   58 1
    63   37   59 1
    64   37   60 1
@<TRIPOS>MOLECULE
ZINC21290301
   55    58     0     0     0
SMALL
USER_CHARGES
N'-[4-(1H-benzimidazol-2-ylsulfanylmethyl)benzoyl]-3-[[(S)-methylsulfinyl]methyl]benzohydrazide
@<TRIPOS>ATOM
      1 C1         19.3512    5.8354    6.7747 C.3       1 <0>        -0.4954
      2 S1         18.4841    5.4850    5.2204 S.o       1 <0>         1.2482
      3 O1         19.4165    5.0275    4.2506 O.2       1 <0>        -0.8398
      4 C2         17.8252    7.0969    4.7124 C.3       1 <0>        -0.4129
      5 C3         17.0715    6.9457    3.4163 C.ar      1 <0>        -0.0726
      6 C4         17.7342    7.0951    2.2107 C.ar      1 <0>        -0.0793
      7 C5         17.0497    6.9578    1.0164 C.ar      1 <0>        -0.1169
      8 C6         15.7013    6.6650    1.0203 C.ar      1 <0>        -0.0850
      9 C7         15.0258    6.5183    2.2326 C.ar      1 <0>        -0.1243
     10 C8         15.7225    6.6581    3.4342 C.ar      1 <0>        -0.0507
     11 C9         13.5799    6.2101    2.2443 C.2       1 <0>         0.5654
     12 O2         12.9952    6.0779    3.3017 O.2       1 <0>        -0.5403
     13 N1         12.9101    6.0757    1.0825 N.am      1 <0>        -0.5282
     14 N2         11.5399    5.7837    1.0936 N.am      1 <0>        -0.5269
     15 C10        10.8701    5.6494   -0.0682 C.2       1 <0>         0.5626
     16 O3         11.4548    5.7815   -1.1256 O.2       1 <0>        -0.5398
     17 C11         9.4242    5.3412   -0.0565 C.ar      1 <0>        -0.1177
     18 C12         8.7276    5.2014   -1.2579 C.ar      1 <0>        -0.0534
     19 C13         7.3785    4.9134   -1.2400 C.ar      1 <0>        -0.1036
     20 C14         6.7161    4.7631   -0.0346 C.ar      1 <0>        -0.0547
     21 C15         7.3995    4.9060    1.1599 C.ar      1 <0>        -0.1027
     22 C16         8.7499    5.1884    1.1559 C.ar      1 <0>        -0.0840
     23 C17         5.2423    4.4485   -0.0227 C.3       1 <0>        -0.0643
     24 S2          5.0084    2.6537   -0.0303 S.3       1 <0>         0.0021
     25 C18         3.2483    2.5745   -0.0145 C.2       1 <0>         0.2488
     26 N3          2.5141    1.4221   -0.0139 N.pl3     1 <0>        -0.5963
     27 H1          3.0220    0.4464   -0.0238 H         1 <0>         0.4549
     28 C19         1.1777    1.7869    0.0004 C.ar      1 <0>         0.0693
     29 C20        -0.0126    1.0758    0.0080 C.ar      1 <0>        -0.1125
     30 C21        -1.2158    1.7509    0.0173 C.ar      1 <0>        -0.0996
     31 C22        -1.2433    3.1376    0.0301 C.ar      1 <0>        -0.1257
     32 C23        -0.0710    3.8598    0.0232 C.ar      1 <0>        -0.0661
     33 C24         1.1558    3.1913    0.0082 C.ar      1 <0>         0.0538
     34 N4          2.4477    3.6120   -0.0014 N.2       1 <0>        -0.4954
     35 H2         18.6294    6.1896    7.5254 H         1 <0>         0.1163
     36 H3         20.1122    6.6109    6.6032 H         1 <0>         0.0814
     37 H4         19.8378    4.9182    7.1379 H         1 <0>         0.1085
     38 H5         17.1456    7.4766    5.4896 H         1 <0>         0.1329
     39 H6         18.6554    7.8051    4.5733 H         1 <0>         0.0992
     40 H7         18.7906    7.3195    2.2022 H         1 <0>         0.1272
     41 H8         17.5728    7.0757    0.0789 H         1 <0>         0.1345
     42 H9         15.1690    6.5536    0.0872 H         1 <0>         0.1283
     43 H10        15.2064    6.5417    4.3757 H         1 <0>         0.1468
     44 H11        13.4392    6.1953    0.1256 H         1 <0>         0.4572
     45 H12        11.0108    5.6641    2.0505 H         1 <0>         0.4571
     46 H13         9.2436    5.3181   -2.1995 H         1 <0>         0.1428
     47 H14         6.8384    4.8046   -2.1689 H         1 <0>         0.1376
     48 H15         6.8756    4.7918    2.0974 H         1 <0>         0.1372
     49 H16         9.2832    5.2949    2.0890 H         1 <0>         0.1309
     50 H17         4.7838    4.8742    0.8821 H         1 <0>         0.1134
     51 H18         4.7672    4.8840   -0.9141 H         1 <0>         0.1133
     52 H19         0.0021   -0.0041    0.0020 H         1 <0>         0.1240
     53 H20        -2.1424    1.1960    0.0187 H         1 <0>         0.1321
     54 H21        -2.1914    3.6548    0.0416 H         1 <0>         0.1318
     55 H22        -0.0997    4.9394    0.0296 H         1 <0>         0.1303
@<TRIPOS>BOND
     1    1    2 1
     2    1   35 1
     3    1   36 1
     4    1   37 1
     5    2    3 2
     6    2    4 1
     7    4    5 1
     8    4   38 1
     9    4   39 1
    10    5   10 ar
    11    5    6 ar
    12    6    7 ar
    13    6   40 1
    14    7    8 ar
    15    7   41 1
    16    8    9 ar
    17    8   42 1
    18    9   10 ar
    19    9   11 1
    20   10   43 1
    21   11   12 2
    22   11   13 am
    23   13   14 1
    24   13   44 1
    25   14   15 am
    26   14   45 1
    27   15   16 2
    28   15   17 1
    29   17   22 ar
    30   17   18 ar
    31   18   19 ar
    32   18   46 1
    33   19   20 ar
    34   19   47 1
    35   20   21 ar
    36   20   23 1
    37   21   22 ar
    38   21   48 1
    39   22   49 1
    40   23   24 1
    41   23   50 1
    42   23   51 1
    43   24   25 1
    44   25   34 2
    45   25   26 1
    46   26   27 1
    47   26   28 1
    48   28   33 ar
    49   28   29 ar
    50   29   30 ar
    51   29   52 1
    52   30   31 ar
    53   30   53 1
    54   31   32 ar
    55   31   54 1
    56   32   33 ar
    57   32   55 1
    58   33   34 1
@<TRIPOS>MOLECULE
ZINC31394139
   54    56     0     0     0
SMALL
USER_CHARGES
N-[4-[(1R)-1-[3-[(4-bromophenyl)sulfonylamino]propanoylamino]ethyl]phenyl]cyclopropanecarboxamide
@<TRIPOS>ATOM
      1 C1         -5.4372    3.7167    1.8242 C.3       1 <0>        -0.1576
      2 C2         -5.2059    3.2120    0.3985 C.3       1 <0>         0.1883
      3 H1         -5.9588    2.4606    0.1184 H         1 <0>         0.0961
      4 C3         -3.8260    2.6153    0.2945 C.ar      1 <0>        -0.1087
      5 C4         -3.6616    1.2434    0.3495 C.ar      1 <0>        -0.0861
      6 C5         -2.3982    0.6935    0.2544 C.ar      1 <0>        -0.1426
      7 C6         -1.2923    1.5198    0.1040 C.ar      1 <0>         0.1553
      8 C7         -1.4602    2.8975    0.0553 C.ar      1 <0>        -0.1188
      9 C8         -2.7268    3.4409    0.1447 C.ar      1 <0>        -0.0934
     10 N1         -0.0111    0.9658    0.0074 N.am      1 <0>        -0.6891
     11 C9          0.9245    1.5611   -0.7587 C.2       1 <0>         0.5141
     12 O1          0.6310    2.5232   -1.4364 O.2       1 <0>        -0.5296
     13 C10         2.3352    1.0313   -0.7733 C.3       1 <0>        -0.2781
     14 C11         3.4235    1.9023   -0.1426 C.3       1 <0>        -0.0912
     15 C12         3.3508    1.7505   -1.6633 C.3       1 <0>        -0.0975
     16 N2         -5.3267    4.3297   -0.5408 N.am      1 <0>        -0.7372
     17 C13        -6.5392    4.6926   -1.0041 C.2       1 <0>         0.5191
     18 O2         -7.5303    4.0938   -0.6433 O.2       1 <0>        -0.5409
     19 C14        -6.6635    5.8424   -1.9703 C.3       1 <0>        -0.1479
     20 C15        -8.1354    6.0445   -2.3359 C.3       1 <0>         0.1290
     21 N3         -8.2562    7.1623   -3.2752 N.pl3     1 <0>        -1.1221
     22 S1         -9.6591    7.3794   -4.1277 S.o2      1 <0>         2.6959
     23 O3         -9.4766    8.5447   -4.9202 O.2       1 <0>        -0.9534
     24 O4         -9.9905    6.1183   -4.6925 O.2       1 <0>        -0.9483
     25 C16       -10.9245    7.7569   -2.9612 C.ar      1 <0>        -0.6732
     26 C17       -11.6717    6.7390   -2.3985 C.ar      1 <0>        -0.0126
     27 C18       -12.6612    7.0343   -1.4798 C.ar      1 <0>        -0.1113
     28 C19       -12.9109    8.3494   -1.1313 C.ar      1 <0>        -0.0389
     29 C20       -12.1666    9.3680   -1.6985 C.ar      1 <0>        -0.1135
     30 C21       -11.1737    9.0714   -2.6132 C.ar      1 <0>        -0.0133
     31 Br1       -14.2690    8.7545    0.1207 Br        1 <0>        -0.0324
     32 H2         -6.4444    4.1522    1.9001 H         1 <0>         0.0649
     33 H3         -4.6869    4.4833    2.0680 H         1 <0>         0.0598
     34 H4         -5.3465    2.8774    2.5295 H         1 <0>         0.0681
     35 H5         -4.5220    0.6013    0.4665 H         1 <0>         0.1289
     36 H6         -2.2705   -0.3781    0.2974 H         1 <0>         0.1275
     37 H7         -0.6017    3.5431   -0.0568 H         1 <0>         0.1336
     38 H8         -2.8585    4.5120    0.1022 H         1 <0>         0.1239
     39 H9          0.2326    0.0444    0.5567 H         1 <0>         0.4345
     40 H10         1.9954   -0.0080   -0.6533 H         1 <0>         0.1285
     41 H11         2.9554    2.7129    0.4351 H         1 <0>         0.1019
     42 H12         4.0442    1.2871    0.5254 H         1 <0>         0.1117
     43 H13         3.9114    1.0098   -2.2524 H         1 <0>         0.1116
     44 H14         2.8226    2.4356   -2.3427 H         1 <0>         0.1165
     45 H15        -4.4278    4.8728   -0.8680 H         1 <0>         0.4198
     46 H16        -6.2728    6.7582   -1.5026 H         1 <0>         0.1029
     47 H17        -6.0867    5.6206   -2.8803 H         1 <0>         0.1073
     48 H18        -8.5261    5.1287   -2.8035 H         1 <0>         0.0940
     49 H19        -8.7122    6.2663   -1.4259 H         1 <0>         0.0705
     50 H20        -7.4874    7.9488   -3.2960 H         1 <0>         0.4432
     51 H21       -11.4794    5.7125   -2.6738 H         1 <0>         0.1509
     52 H22       -13.2419    6.2386   -1.0369 H         1 <0>         0.1449
     53 H23       -12.3610   10.3950   -1.4264 H         1 <0>         0.1443
     54 H24       -10.5923    9.8666   -3.0559 H         1 <0>         0.1503
@<TRIPOS>BOND
     1    1    2 1
     2    1   32 1
     3    1   33 1
     4    1   34 1
     5    2    3 1
     6    2    4 1
     7    2   16 1
     8    4    9 ar
     9    4    5 ar
    10    5    6 ar
    11    5   35 1
    12    6    7 ar
    13    6   36 1
    14    7    8 ar
    15    7   10 1
    16    8    9 ar
    17    8   37 1
    18    9   38 1
    19   10   11 am
    20   10   39 1
    21   11   12 2
    22   11   13 1
    23   13   15 1
    24   13   14 1
    25   13   40 1
    26   14   15 1
    27   14   41 1
    28   14   42 1
    29   15   43 1
    30   15   44 1
    31   16   17 am
    32   16   45 1
    33   17   18 2
    34   17   19 1
    35   19   20 1
    36   19   46 1
    37   19   47 1
    38   20   21 1
    39   20   48 1
    40   20   49 1
    41   21   22 1
    42   21   50 1
    43   22   23 2
    44   22   24 2
    45   22   25 1
    46   25   30 ar
    47   25   26 ar
    48   26   27 ar
    49   26   51 1
    50   27   28 ar
    51   27   52 1
    52   28   29 ar
    53   28   31 1
    54   29   30 ar
    55   29   53 1
    56   30   54 1
@<TRIPOS>MOLECULE
ZINC43737428
   79    83     0     0     0
SMALL
USER_CHARGES

@<TRIPOS>ATOM
      1 C1         -0.0184    1.5028    0.0103 C.3       1 <0>        -0.1084
      2 C2          0.0021   -0.0041    0.0020 C.ar      1 <0>         0.1338
      3 C3          0.0055   -0.6806   -1.2034 C.ar      1 <0>        -0.1694
      4 C4          0.0244   -2.0667   -1.1999 C.ar      1 <0>        -0.0560
      5 C5          0.0391   -2.7236    0.0213 C.ar      1 <0>        -0.1821
      6 C6          0.0345   -1.9800    1.1859 C.ar      1 <0>         0.1183
      7 N1          0.0219   -0.6618    1.1446 N.ar      1 <0>        -0.4807
      8 C7          0.0594   -4.2294    0.0775 C.3       1 <0>         0.1473
      9 H1         -0.2915   -4.6332   -0.8722 H         1 <0>         0.1181
     10 C8          1.4878   -4.7108    0.3399 C.3       1 <0>         0.0945
     11 N2          1.5295   -6.1738    0.2761 N.am      1 <0>        -0.7234
     12 C9          2.6927   -6.8242    0.4770 C.2       1 <0>         0.5179
     13 O1          3.7049   -6.1983    0.7106 O.2       1 <0>        -0.5193
     14 C10         2.7356   -8.3292    0.4114 C.3       1 <0>         0.0593
     15 O2          4.0697   -8.7788    0.6565 O.3       1 <0>        -0.2158
     16 N3          4.2195  -10.1863    0.6171 N.2       1 <0>        -0.3510
     17 C11         5.3834  -10.7209    0.8238 C.2       1 <0>         0.1842
     18 C12         5.5415  -12.2178    0.7646 C.3       1 <0>        -0.0653
     19 C13         7.0148  -12.5920    0.6093 C.3       1 <0>        -0.1057
     20 C14         7.8621  -11.8661    1.6609 C.3       1 <0>        -0.0218
     21 C15         9.3228  -12.2584    1.4987 C.3       1 <0>        -0.0603
     22 H2          9.2905  -13.2851    1.0684 H         1 <0>         0.0623
     23 C16        10.0659  -12.4116    2.8102 C.3       1 <0>        -0.1094
     24 C17        11.5024  -12.9261    2.5864 C.3       1 <0>        -0.0983
     25 C18        12.2176  -11.9575    1.6752 C.3       1 <0>        -0.0326
     26 C19        11.4755  -11.8945    0.3261 C.3       1 <0>        -0.0764
     27 H3         11.4628  -12.9182   -0.1187 H         1 <0>         0.0788
     28 C20        10.0518  -11.4217    0.4566 C.3       1 <0>        -0.0559
     29 H4          9.5529  -11.6692   -0.5210 H         1 <0>         0.0598
     30 C21         9.9310   -9.9209    0.5954 C.3       1 <0>        -0.1088
     31 C22         8.9181   -9.5106    1.6619 C.3       1 <0>        -0.0869
     32 C23         7.6994  -10.3793    1.4660 C.2       1 <0>        -0.0423
     33 C24         6.5408   -9.8607    1.0981 C.2       1 <0>        -0.1804
     34 C25        12.4363  -11.0453   -0.5165 C.3       1 <0>        -0.1160
     35 C26        13.8241  -11.6317   -0.1280 C.3       1 <0>        -0.1442
     36 C27        13.6256  -12.3744    1.2183 C.3       1 <0>         0.2413
     37 C28        14.6237  -11.9333    2.2023 C.1       1 <0>        -0.2056
     38 C29        15.4212  -11.5810    2.9885 C.1       1 <0>        -0.1846
     39 O3         13.6850  -13.7854    1.0296 O.3       1 <0>        -0.5391
     40 C30        12.3506  -10.6026    2.3659 C.3       1 <0>        -0.1463
     41 C31         7.3478  -12.2375    3.0539 C.3       1 <0>        -0.1402
     42 O4         -0.7956   -4.6782    1.1309 O.3       1 <0>        -0.5483
     43 H5          1.0042    1.8801    0.0026 H         1 <0>         0.0813
     44 H6         -0.5455    1.8639   -0.8728 H         1 <0>         0.0772
     45 H7         -0.5286    1.8543    0.9071 H         1 <0>         0.0795
     46 H8         -0.0066   -0.1362   -2.1360 H         1 <0>         0.1392
     47 H9          0.0272   -2.6219   -2.1263 H         1 <0>         0.1383
     48 H10         0.0459   -2.4840    2.1410 H         1 <0>         0.1531
     49 H11         2.1556   -4.2951   -0.4146 H         1 <0>         0.0811
     50 H12         1.8065   -4.3810    1.3287 H         1 <0>         0.0760
     51 H13         0.7199   -6.6744    0.0893 H         1 <0>         0.4075
     52 H14         2.0677   -8.7449    1.1659 H         1 <0>         0.0880
     53 H15         2.4169   -8.6590   -0.5774 H         1 <0>         0.0872
     54 H16         5.1187  -12.6748    1.6572 H         1 <0>         0.0957
     55 H17         4.9865  -12.5950   -0.1044 H         1 <0>         0.0887
     56 H18         7.1341  -13.6697    0.7358 H         1 <0>         0.0821
     57 H19         7.3617  -12.3093   -0.3864 H         1 <0>         0.0713
     58 H20        10.0802  -11.4765    3.3575 H         1 <0>         0.0656
     59 H21         9.5755  -13.1738    3.4323 H         1 <0>         0.0635
     60 H22        12.0191  -12.9908    3.5455 H         1 <0>         0.0610
     61 H23        11.4647  -13.9157    2.1269 H         1 <0>         0.0726
     62 H24        10.8754   -9.4358    0.7707 H         1 <0>         0.0763
     63 H25         9.5529   -9.5279   -0.3667 H         1 <0>         0.0540
     64 H26         9.3356   -9.6697    2.6502 H         1 <0>         0.0803
     65 H27         8.6505   -8.4656    1.5258 H         1 <0>         0.0733
     66 H28         6.4427   -8.7899    0.9975 H         1 <0>         0.1281
     67 H29        12.2457  -11.1987   -1.5810 H         1 <0>         0.0685
     68 H30        12.3723   -9.9913   -0.2687 H         1 <0>         0.0748
     69 H31        14.1579  -12.3319   -0.8939 H         1 <0>         0.0776
     70 H32        14.5501  -10.8287   -0.0111 H         1 <0>         0.0728
     71 H33        16.1345  -11.2658    3.6917 H         1 <0>         0.2177
     72 H34        14.5499  -14.1076    0.7410 H         1 <0>         0.3786
     73 H35        12.9098  -10.7212    3.2939 H         1 <0>         0.0582
     74 H36        12.8783   -9.9104    1.7096 H         1 <0>         0.0565
     75 H37        11.3587  -10.2086    2.5872 H         1 <0>         0.0703
     76 H38         7.4283  -13.3152    3.1956 H         1 <0>         0.0637
     77 H39         7.9440  -11.7261    3.8097 H         1 <0>         0.0621
     78 H40         6.3047  -11.9355    3.1485 H         1 <0>         0.0579
     79 H41        -0.5425   -4.3565    2.0070 H         1 <0>         0.3795
@<TRIPOS>BOND
     1    1    2 1
     2    1   43 1
     3    1   44 1
     4    1   45 1
     5    2    7 ar
     6    2    3 ar
     7    3    4 ar
     8    3   46 1
     9    4    5 ar
    10    4   47 1
    11    5    6 ar
    12    5    8 1
    13    6    7 ar
    14    6   48 1
    15    8    9 1
    16    8   10 1
    17    8   42 1
    18   10   11 1
    19   10   49 1
    20   10   50 1
    21   11   12 am
    22   11   51 1
    23   12   13 2
    24   12   14 1
    25   14   15 1
    26   14   52 1
    27   14   53 1
    28   15   16 1
    29   16   17 2
    30   17   33 1
    31   17   18 1
    32   18   19 1
    33   18   54 1
    34   18   55 1
    35   19   20 1
    36   19   56 1
    37   19   57 1
    38   20   32 1
    39   20   21 1
    40   20   41 1
    41   21   22 1
    42   21   28 1
    43   21   23 1
    44   23   24 1
    45   23   58 1
    46   23   59 1
    47   24   25 1
    48   24   60 1
    49   24   61 1
    50   25   36 1
    51   25   26 1
    52   25   40 1
    53   26   27 1
    54   26   28 1
    55   26   34 1
    56   28   29 1
    57   28   30 1
    58   30   31 1
    59   30   62 1
    60   30   63 1
    61   31   32 1
    62   31   64 1
    63   31   65 1
    64   32   33 2
    65   33   66 1
    66   34   35 1
    67   34   67 1
    68   34   68 1
    69   35   36 1
    70   35   69 1
    71   35   70 1
    72   36   37 1
    73   36   39 1
    74   37   38 3
    75   38   71 1
    76   39   72 1
    77   40   73 1
    78   40   74 1
    79   40   75 1
    80   41   76 1
    81   41   77 1
    82   41   78 1
    83   42   79 1
@<TRIPOS>MOLECULE
ZINC38653242
   63    66     0     0     0
SMALL
USER_CHARGES

@<TRIPOS>ATOM
      1 C1         -0.0187    1.5258    0.0104 C.3       1 <0>        -0.1327
      2 C2          0.0021   -0.0041    0.0020 C.3       1 <0>        -0.0683
      3 H1          0.5189   -0.3805   -0.8807 H         1 <0>         0.1602
      4 C3         -1.3991   -0.5649    0.0893 C.2       1 <0>         0.0660
      5 C4         -1.7037   -1.3207    1.1548 C.2       1 <0>        -0.3163
      6 C5         -0.6447   -1.5465    2.1616 C.2       1 <0>         0.2805
      7 N1         -0.8815   -2.2758    3.2260 N.2       1 <0>        -0.5279
      8 C6         -2.0663   -2.8291    3.4323 C.2       1 <0>         0.4617
      9 N2         -3.0786   -2.6976    2.6093 N.2       1 <0>        -0.5850
     10 C7         -3.0050   -1.9880    1.4784 C.2       1 <0>         0.5525
     11 O1         -3.9664   -1.8864    0.7353 O.2       1 <0>        -0.4454
     12 C8         -2.2617   -3.6539    4.6784 C.3       1 <0>         0.0041
     13 H2         -2.1730   -3.0132    5.5558 H         1 <0>         0.1167
     14 C9         -1.1955   -4.7496    4.7371 C.3       1 <0>        -0.1410
     15 S1         -3.9086   -4.4136    4.6485 S.3       1 <0>        -0.1826
     16 C10        -4.0432   -5.2331    6.2612 C.3       1 <0>         0.4014
     17 H3         -5.0128   -5.7209    6.3619 H         1 <0>         0.1131
     18 N3         -3.8347   -4.2654    7.3526 N.pl3     1 <0>        -0.6435
     19 N4         -2.7058   -4.7077    8.0530 N.2       1 <0>        -0.2504
     20 C11        -2.2232   -5.7805    7.5422 C.2       1 <0>         0.2534
     21 N5         -2.9529   -6.2074    6.4392 N.pl3     1 <0>        -0.4886
     22 N6         -2.7089   -7.3102    5.6709 N.3       1 <0>        -0.5566
     23 C12        -1.0084   -6.4951    8.0756 C.3       1 <0>         0.1404
     24 O2         -0.5039   -5.7929    9.2133 O.3       1 <0>        -0.2895
     25 C13         0.5981   -6.3092    9.8183 C.ar      1 <0>         0.1233
     26 C14         1.1852   -7.4647    9.3235 C.ar      1 <0>        -0.2070
     27 C15         2.3056   -7.9872    9.9400 C.ar      1 <0>        -0.0746
     28 C16         2.8416   -7.3599   11.0494 C.ar      1 <0>        -0.1040
     29 C17         2.2580   -6.2084   11.5448 C.ar      1 <0>        -0.0804
     30 C18         1.1411   -5.6785   10.9282 C.ar      1 <0>        -0.1419
     31 C19         4.0636   -7.9324   11.7203 C.3       1 <0>        -0.0266
     32 C20         5.2221   -7.9723   10.7216 C.3       1 <0>        -0.1395
     33 C21         4.4487   -7.0551   12.9132 C.3       1 <0>        -0.1465
     34 C22         3.7608   -9.3509   12.2070 C.3       1 <0>        -0.1395
     35 S2          0.7642   -0.6607    1.5412 S.3       1 <0>         0.0109
     36 C23        -2.4191   -0.2841   -0.9840 C.3       1 <0>        -0.1373
     37 H4          1.0039    1.9031    0.0027 H         1 <0>         0.0872
     38 H5         -0.5459    1.8868   -0.8726 H         1 <0>         0.0892
     39 H6         -0.5289    1.8773    0.9072 H         1 <0>         0.0752
     40 H7         -1.2842   -5.3903    3.8597 H         1 <0>         0.0696
     41 H8         -0.2059   -4.2931    4.7550 H         1 <0>         0.0672
     42 H9         -1.3369   -5.3462    5.6383 H         1 <0>         0.0859
     43 H10        -4.3710   -3.4808    7.5466 H         1 <0>         0.4547
     44 H11        -1.8997   -7.8118    6.0051 H         1 <0>         0.3590
     45 H12        -3.5180   -7.9119    5.6349 H         1 <0>         0.3445
     46 H13        -1.2821   -7.5093    8.3666 H         1 <0>         0.0843
     47 H14        -0.2409   -6.5336    7.3026 H         1 <0>         0.0904
     48 H15         0.7665   -7.9554    8.4573 H         1 <0>         0.1253
     49 H16         2.7631   -8.8867    9.5552 H         1 <0>         0.1242
     50 H17         2.6783   -5.7205   12.4117 H         1 <0>         0.1344
     51 H18         0.6883   -4.7766   11.3128 H         1 <0>         0.1322
     52 H19         5.4378   -6.9617   10.3748 H         1 <0>         0.0568
     53 H20         6.1059   -8.3864   11.2068 H         1 <0>         0.0586
     54 H21         4.9477   -8.5973    9.8717 H         1 <0>         0.0559
     55 H22         3.6234   -7.0267   13.6247 H         1 <0>         0.0591
     56 H23         5.3325   -7.4692   13.3984 H         1 <0>         0.0590
     57 H24         4.6644   -6.0446   12.5664 H         1 <0>         0.0594
     58 H25         3.4865   -9.9759   11.3572 H         1 <0>         0.0558
     59 H26         4.6446   -9.7650   12.6922 H         1 <0>         0.0587
     60 H27         2.9355   -9.3225   12.9185 H         1 <0>         0.0564
     61 H28        -2.3606   -1.0558   -1.7516 H         1 <0>         0.1038
     62 H29        -3.4169   -0.2827   -0.5455 H         1 <0>         0.1059
     63 H30        -2.2173    0.6892   -1.4312 H         1 <0>         0.0884
@<TRIPOS>BOND
     1    1    2 1
     2    1   37 1
     3    1   38 1
     4    1   39 1
     5    2    3 1
     6    2   35 1
     7    2    4 1
     8    4    5 2
     9    4   36 1
    10    5   10 1
    11    5    6 1
    12    6    7 2
    13    6   35 1
    14    7    8 1
    15    8    9 2
    16    8   12 1
    17    9   10 1
    18   10   11 2
    19   12   13 1
    20   12   14 1
    21   12   15 1
    22   14   40 1
    23   14   41 1
    24   14   42 1
    25   15   16 1
    26   16   17 1
    27   16   21 1
    28   16   18 1
    29   18   19 1
    30   18   43 1
    31   19   20 2
    32   20   21 1
    33   20   23 1
    34   21   22 1
    35   22   44 1
    36   22   45 1
    37   23   24 1
    38   23   46 1
    39   23   47 1
    40   24   25 1
    41   25   30 ar
    42   25   26 ar
    43   26   27 ar
    44   26   48 1
    45   27   28 ar
    46   27   49 1
    47   28   29 ar
    48   28   31 1
    49   29   30 ar
    50   29   50 1
    51   30   51 1
    52   31   32 1
    53   31   33 1
    54   31   34 1
    55   32   52 1
    56   32   53 1
    57   32   54 1
    58   33   55 1
    59   33   56 1
    60   33   57 1
    61   34   58 1
    62   34   59 1
    63   34   60 1
    64   36   61 1
    65   36   62 1
    66   36   63 1
@<TRIPOS>MOLECULE
ZINC39595248
   77    81     0     0     0
SMALL
USER_CHARGES

@<TRIPOS>ATOM
      1 C1          0.4897    1.3294    0.2027 C.3       1 <0>        -0.1102
      2 C2          0.6744   -0.1653    0.2543 C.ar      1 <0>        -0.0719
      3 C3          0.7498   -0.8935   -0.9186 C.ar      1 <0>        -0.1194
      4 C4          0.9192   -2.2643   -0.8713 C.ar      1 <0>        -0.1072
      5 C5          1.0138   -2.9075    0.3489 C.ar      1 <0>        -0.1205
      6 C6          0.9394   -2.1795    1.5214 C.ar      1 <0>        -0.1025
      7 C7          0.7742   -0.8076    1.4740 C.ar      1 <0>        -0.0821
      8 C8          0.6984   -0.0132    2.7524 C.3       1 <0>        -0.0932
      9 C9         -0.7454    0.1831    3.1369 C.2       1 <0>         0.5467
     10 O1         -1.6261   -0.2769    2.4414 O.2       1 <0>        -0.5118
     11 N1         -1.0580    0.8697    4.2538 N.am      1 <0>        -0.6241
     12 C10        -0.1302    1.5063    5.2181 C.3       1 <0>         0.1142
     13 C11        -0.8164    2.8372    5.5996 C.3       1 <0>        -0.1126
     14 H1         -0.6569    3.0574    6.6551 H         1 <0>         0.1198
     15 C12        -2.3105    2.6021    5.3215 C.3       1 <0>        -0.0731
     16 C13        -2.4078    1.1642    4.7915 C.3       1 <0>         0.1045
     17 C14        -2.8120    3.5822    4.2652 C.3       1 <0>        -0.1430
     18 C15        -4.3123    3.3669    4.0473 C.3       1 <0>        -0.0111
     19 N2         -5.0268    3.5725    5.3130 N.4       1 <0>        -0.5043
     20 C16        -4.6053    2.5665    6.2953 C.3       1 <0>        -0.0126
     21 C17        -3.1172    2.7477    6.6081 C.3       1 <0>        -0.1325
     22 C18        -0.2917    3.9619    4.7448 C.2       1 <0>         0.5250
     23 O2          0.1052    3.7355    3.6214 O.2       1 <0>        -0.4995
     24 N3         -0.2635    5.2195    5.2288 N.am      1 <0>        -0.7304
     25 C19         0.2465    6.3129    4.3978 C.3       1 <0>         0.1028
     26 C20         0.2578    7.6089    5.2109 C.3       1 <0>         0.0760
     27 H2          0.8193    7.4548    6.1324 H         1 <0>         0.1525
     28 C21        -1.1574    8.0045    5.5453 C.ar      1 <0>        -0.1981
     29 C22        -1.6838    7.7357    6.7997 C.ar      1 <0>        -0.0487
     30 C23        -2.9903    8.1177    7.0627 C.ar      1 <0>        -0.1584
     31 C24        -3.7196    8.7492    6.0728 C.ar      1 <0>         0.1278
     32 N4         -3.1864    8.9884    4.8908 N.ar      1 <0>        -0.4605
     33 C25        -1.9450    8.6447    4.6076 C.ar      1 <0>         0.1115
     34 N5          0.8914    8.6753    4.4239 N.4       1 <0>        -0.3916
     35 C26         0.9463    9.9316    5.2144 C.3       1 <0>        -0.0025
     36 C27         2.0834   10.7314    4.5303 C.3       1 <0>        -0.1447
     37 C28         3.1076    9.6325    4.1650 C.3       1 <0>        -0.1440
     38 C29         2.2970    8.3237    4.1272 C.3       1 <0>        -0.0129
     39 H3          1.4650    1.8152    0.1728 H         1 <0>         0.0690
     40 H4         -0.0760    1.5950   -0.6904 H         1 <0>         0.0659
     41 H5         -0.0535    1.6591    1.0882 H         1 <0>         0.0581
     42 H6          0.6758   -0.3911   -1.8718 H         1 <0>         0.1234
     43 H7          0.9773   -2.8332   -1.7875 H         1 <0>         0.1263
     44 H8          1.1455   -3.9788    0.3859 H         1 <0>         0.1260
     45 H9          1.0130   -2.6819    2.4746 H         1 <0>         0.1198
     46 H10         1.2158   -0.5519    3.5462 H         1 <0>         0.1024
     47 H11         1.1704    0.9582    2.6050 H         1 <0>         0.1064
     48 H12        -0.0065    0.8764    6.0990 H         1 <0>         0.0948
     49 H13         0.8345    1.6973    4.7479 H         1 <0>         0.0981
     50 H14        -3.1547    1.1011    4.0001 H         1 <0>         0.0894
     51 H15        -2.6524    0.4781    5.6023 H         1 <0>         0.0865
     52 H16        -2.6362    4.6033    4.6037 H         1 <0>         0.0872
     53 H17        -2.2802    3.4119    3.3291 H         1 <0>         0.1223
     54 H18        -4.6770    4.0769    3.3050 H         1 <0>         0.1383
     55 H19        -4.4857    2.3507    3.6933 H         1 <0>         0.1385
     56 H20        -4.8209    4.4942    5.6681 H         1 <0>         0.4232
     57 H21        -5.1858    2.6865    7.2100 H         1 <0>         0.1434
     58 H22        -4.7719    1.5692    5.8881 H         1 <0>         0.1367
     59 H23        -2.8008    1.9889    7.3238 H         1 <0>         0.1253
     60 H24        -2.9523    3.7387    7.0308 H         1 <0>         0.0934
     61 H25        -0.5810    5.4006    6.1273 H         1 <0>         0.4039
     62 H26         1.2602    6.0794    4.0722 H         1 <0>         0.1020
     63 H27        -0.3957    6.4366    3.5259 H         1 <0>         0.0918
     64 H28        -1.0903    7.2403    7.5538 H         1 <0>         0.1473
     65 H29        -3.4327    7.9240    8.0286 H         1 <0>         0.1540
     66 H30        -4.7380    9.0500    6.2696 H         1 <0>         0.1728
     67 H31        -1.5408    8.8619    3.6299 H         1 <0>         0.1499
     68 H32         0.0016   10.4709    5.1458 H         1 <0>         0.1332
     69 H33         1.1958    9.7211    6.2544 H         1 <0>         0.1361
     70 H34         1.7178   11.2313    3.6334 H         1 <0>         0.1017
     71 H35         2.5200   11.4506    5.2233 H         1 <0>         0.1220
     72 H36         3.5464    9.8340    3.1878 H         1 <0>         0.1106
     73 H37         3.8864    9.5733    4.9254 H         1 <0>         0.1081
     74 H38         2.6737    7.6318    4.8806 H         1 <0>         0.1335
     75 H39         2.3660    7.8726    3.1374 H         1 <0>         0.1377
     76 H40        -6.0198    3.4902    5.1543 H         1 <0>         0.4379
     77 H41         0.3817    8.8248    3.5660 H         1 <0>         0.4256
@<TRIPOS>BOND
     1    1    2 1
     2    1   39 1
     3    1   40 1
     4    1   41 1
     5    2    7 ar
     6    2    3 ar
     7    3    4 ar
     8    3   42 1
     9    4    5 ar
    10    4   43 1
    11    5    6 ar
    12    5   44 1
    13    6    7 ar
    14    6   45 1
    15    7    8 1
    16    8    9 1
    17    8   46 1
    18    8   47 1
    19    9   10 2
    20    9   11 am
    21   11   16 1
    22   11   12 1
    23   12   13 1
    24   12   48 1
    25   12   49 1
    26   13   14 1
    27   13   15 1
    28   13   22 1
    29   15   21 1
    30   15   16 1
    31   15   17 1
    32   16   50 1
    33   16   51 1
    34   17   18 1
    35   17   52 1
    36   17   53 1
    37   18   19 1
    38   18   54 1
    39   18   55 1
    40   19   20 1
    41   19   56 1
    42   19   76 1
    43   20   21 1
    44   20   57 1
    45   20   58 1
    46   21   59 1
    47   21   60 1
    48   22   23 2
    49   22   24 am
    50   24   25 1
    51   24   61 1
    52   25   26 1
    53   25   62 1
    54   25   63 1
    55   26   27 1
    56   26   28 1
    57   26   34 1
    58   28   33 ar
    59   28   29 ar
    60   29   30 ar
    61   29   64 1
    62   30   31 ar
    63   30   65 1
    64   31   32 ar
    65   31   66 1
    66   32   33 ar
    67   33   67 1
    68   34   38 1
    69   34   35 1
    70   34   77 1
    71   35   36 1
    72   35   68 1
    73   35   69 1
    74   36   37 1
    75   36   70 1
    76   36   71 1
    77   37   38 1
    78   37   72 1
    79   37   73 1
    80   38   74 1
    81   38   75 1
@<TRIPOS>MOLECULE
ZINC39663290
   70    75     0     0     0
SMALL
USER_CHARGES

@<TRIPOS>ATOM
      1 C1         -0.0686    1.3503   -0.0186 C.ar      1 <0>        -0.1211
      2 C2          1.1118    2.0731   -0.0300 C.ar      1 <0>        -0.0694
      3 C3          2.3306    1.4200   -0.0431 C.ar      1 <0>        -0.1544
      4 C4          2.3774    0.0385   -0.0449 C.ar      1 <0>         0.1186
      5 C5          1.1880   -0.6970   -0.0334 C.ar      1 <0>        -0.0699
      6 C6         -0.0381   -0.0284   -0.0202 C.ar      1 <0>        -0.0565
      7 C7          1.2282   -2.1728   -0.0357 C.2       1 <0>         0.0659
      8 C8          0.6199   -2.9873    0.8763 C.2       1 <0>        -0.1893
      9 C9          0.9080   -4.3050    0.5075 C.2       1 <0>        -0.0969
     10 C10         1.6883   -4.2390   -0.6262 C.2       1 <0>        -0.0881
     11 O1          1.8645   -2.9376   -0.9387 O.3       1 <0>        -0.1520
     12 C11         2.2282   -5.3819   -1.3664 C.2       1 <0>         0.6401
     13 O2          1.9197   -6.5151   -1.0461 O.2       1 <0>        -0.5068
     14 N1          3.0664   -5.1789   -2.4021 N.am      1 <0>        -0.6159
     15 C12         3.6446   -3.8952   -2.8644 C.3       1 <0>         0.1126
     16 C13         5.0989   -4.2406   -3.2560 C.3       1 <0>        -0.1135
     17 H1          5.3985   -3.6762   -4.1390 H         1 <0>         0.1211
     18 C14         5.0745   -5.7467   -3.5660 C.3       1 <0>        -0.0735
     19 C15         3.6232   -6.1902   -3.3322 C.3       1 <0>         0.1063
     20 C16         6.0077   -6.4962   -2.6199 C.3       1 <0>        -0.1451
     21 C17         6.0099   -7.9834   -2.9847 C.3       1 <0>        -0.0106
     22 N2          6.4541   -8.1475   -4.3742 N.4       1 <0>        -0.5042
     23 C18         5.5005   -7.5021   -5.2845 C.3       1 <0>        -0.0122
     24 C19         5.4764   -5.9946   -5.0167 C.3       1 <0>        -0.1326
     25 C20         6.0334   -3.9537   -2.1091 C.2       1 <0>         0.5196
     26 O3          5.6157   -3.9597   -0.9705 O.2       1 <0>        -0.4939
     27 N3          7.3333   -3.6905   -2.3486 N.am      1 <0>        -0.7358
     28 C21         8.2643   -3.5198   -1.2304 C.3       1 <0>         0.1386
     29 H2          8.0357   -4.2464   -0.4507 H         1 <0>         0.1220
     30 C22         8.1336   -2.1035   -0.6658 C.3       1 <0>        -0.0220
     31 N4          9.4140   -1.4002   -0.7742 N.4       1 <0>        -0.3758
     32 C23         9.8179   -1.2778   -2.1769 C.3       1 <0>        -0.0101
     33 C24        10.0044   -2.6667   -2.7917 C.3       1 <0>        -0.1396
     34 C25         9.7025   -3.7289   -1.7223 C.3       1 <0>        -0.1055
     35 C26        10.6552   -3.5076   -0.5401 C.3       1 <0>        -0.1344
     36 C27        10.4478   -2.0888    0.0022 C.3       1 <0>        -0.0117
     37 F1          3.5683   -0.5992   -0.0581 F         1 <0>        -0.1380
     38 H3         -1.0165    1.8677   -0.0039 H         1 <0>         0.1444
     39 H4          1.0808    3.1527   -0.0290 H         1 <0>         0.1434
     40 H5          3.2477    1.9904   -0.0523 H         1 <0>         0.1407
     41 H6         -0.9606   -0.5900   -0.0109 H         1 <0>         0.1439
     42 H7          0.0280   -2.6728    1.7232 H         1 <0>         0.1661
     43 H8          0.5822   -5.2015    1.0140 H         1 <0>         0.1679
     44 H9          3.0968   -3.5212   -3.7294 H         1 <0>         0.0934
     45 H10         3.6322   -3.1608   -2.0590 H         1 <0>         0.1074
     46 H11         3.5975   -7.1805   -2.8773 H         1 <0>         0.0939
     47 H12         3.0709   -6.1878   -4.2719 H         1 <0>         0.0912
     48 H13         7.0177   -6.0971   -2.7132 H         1 <0>         0.0920
     49 H14         5.6607   -6.3737   -1.5939 H         1 <0>         0.1206
     50 H15         6.6885   -8.5191   -2.3209 H         1 <0>         0.1400
     51 H16         5.0027   -8.3856   -2.8756 H         1 <0>         0.1377
     52 H17         7.3635   -7.7252   -4.4872 H         1 <0>         0.4254
     53 H18         5.8036   -7.6829   -6.3157 H         1 <0>         0.1437
     54 H19         4.5054   -7.9158   -5.1209 H         1 <0>         0.1360
     55 H20         4.7548   -5.5185   -5.6807 H         1 <0>         0.1247
     56 H21         6.4673   -5.5773   -5.1962 H         1 <0>         0.0960
     57 H22         7.6524   -3.6140   -3.2614 H         1 <0>         0.4056
     58 H23         7.3735   -1.5594   -1.2265 H         1 <0>         0.1335
     59 H24         7.8382   -2.1576    0.3820 H         1 <0>         0.1405
     60 H25         9.0484   -0.7382   -2.7290 H         1 <0>         0.1299
     61 H26        10.7566   -0.7270   -2.2362 H         1 <0>         0.1364
     62 H27         9.3200   -2.7895   -3.6311 H         1 <0>         0.0937
     63 H28        11.0323   -2.7784   -3.1367 H         1 <0>         0.1095
     64 H29         9.8180   -4.7303   -2.1369 H         1 <0>         0.1207
     65 H30        10.4387   -4.2329    0.2442 H         1 <0>         0.1046
     66 H31        11.6859   -3.6252   -0.8746 H         1 <0>         0.1101
     67 H32        11.3831   -1.5335   -0.0685 H         1 <0>         0.1365
     68 H33        10.1397   -2.1434    1.0463 H         1 <0>         0.1345
     69 H34         9.3001   -0.4702   -0.4000 H         1 <0>         0.4321
     70 H35         6.5132   -9.1307   -4.5931 H         1 <0>         0.4382
@<TRIPOS>BOND
     1    1    6 ar
     2    1    2 ar
     3    1   38 1
     4    2    3 ar
     5    2   39 1
     6    3    4 ar
     7    3   40 1
     8    4    5 ar
     9    4   37 1
    10    5    6 ar
    11    5    7 1
    12    6   41 1
    13    7   11 1
    14    7    8 2
    15    8    9 1
    16    8   42 1
    17    9   10 2
    18    9   43 1
    19   10   11 1
    20   10   12 1
    21   12   13 2
    22   12   14 am
    23   14   19 1
    24   14   15 1
    25   15   16 1
    26   15   44 1
    27   15   45 1
    28   16   17 1
    29   16   18 1
    30   16   25 1
    31   18   24 1
    32   18   19 1
    33   18   20 1
    34   19   46 1
    35   19   47 1
    36   20   21 1
    37   20   48 1
    38   20   49 1
    39   21   22 1
    40   21   50 1
    41   21   51 1
    42   22   23 1
    43   22   52 1
    44   22   70 1
    45   23   24 1
    46   23   53 1
    47   23   54 1
    48   24   55 1
    49   24   56 1
    50   25   26 2
    51   25   27 am
    52   27   28 1
    53   27   57 1
    54   28   29 1
    55   28   34 1
    56   28   30 1
    57   30   31 1
    58   30   58 1
    59   30   59 1
    60   31   36 1
    61   31   32 1
    62   31   69 1
    63   32   33 1
    64   32   60 1
    65   32   61 1
    66   33   34 1
    67   33   62 1
    68   33   63 1
    69   34   35 1
    70   34   64 1
    71   35   36 1
    72   35   65 1
    73   35   66 1
    74   36   67 1
    75   36   68 1
@<TRIPOS>MOLECULE
ZINC39689189
   75    78     0     0     0
SMALL
USER_CHARGES

@<TRIPOS>ATOM
      1 C1          0.5992    1.4648   -0.2205 C.3       1 <0>        -0.1170
      2 S1          0.4753   -0.3443   -0.1691 S.3       1 <0>        -0.2624
      3 C2         -1.3107   -0.6615   -0.1525 C.3       1 <0>        -0.0748
      4 C3         -1.5603   -2.1704   -0.1090 C.3       1 <0>        -0.1189
      5 C4         -3.0440   -2.4339   -0.0952 C.2       1 <0>         0.5525
      6 O1         -3.8249   -1.5063   -0.1180 O.2       1 <0>        -0.5271
      7 N1         -3.5031   -3.7005   -0.0576 N.am      1 <0>        -0.6206
      8 C5         -2.7116   -4.9528   -0.0192 C.3       1 <0>         0.1131
      9 C6         -3.4820   -5.8718    0.9552 C.3       1 <0>        -0.1144
     10 H1         -3.4493   -6.9047    0.6087 H         1 <0>         0.1181
     11 C7         -4.9266   -5.3448    0.9323 C.3       1 <0>        -0.0731
     12 C8         -4.9140   -4.1555   -0.0388 C.3       1 <0>         0.1047
     13 C9         -5.3407   -4.8771    2.3243 C.3       1 <0>        -0.1426
     14 C10        -6.7988   -4.4110    2.2882 C.3       1 <0>        -0.0112
     15 N2         -7.6570   -5.5169    1.8462 N.4       1 <0>        -0.5039
     16 C11        -7.3132   -5.8991    0.4713 C.3       1 <0>        -0.0123
     17 C12        -5.8767   -6.4278    0.4304 C.3       1 <0>        -0.1320
     18 C13        -2.9045   -5.7665    2.3432 C.2       1 <0>         0.5182
     19 O2         -2.3920   -4.7302    2.7097 O.2       1 <0>        -0.5064
     20 N3         -2.9577   -6.8238    3.1772 N.am      1 <0>        -0.7357
     21 C14        -2.3963   -6.7215    4.5265 C.3       1 <0>         0.1217
     22 C15        -2.5857   -8.0508    5.2599 C.3       1 <0>        -0.1139
     23 C16        -4.0800   -8.3105    5.4716 C.3       1 <0>        -0.1405
     24 C17        -4.2591   -9.6007    6.2747 C.3       1 <0>        -0.0088
     25 N4         -3.5949   -9.4670    7.5768 N.4       1 <0>        -0.3798
     26 C18        -2.1508   -9.2894    7.3834 C.3       1 <0>        -0.0118
     27 C19        -1.8905   -7.9872    6.6230 C.3       1 <0>        -0.1399
     28 C20        -3.8355  -10.6771    8.3741 C.3       1 <0>         0.0194
     29 C21        -5.3444  -10.8340    8.6542 C.3       1 <0>        -0.1403
     30 C22        -5.4066  -11.3951   10.0966 C.3       1 <0>        -0.1258
     31 C23        -4.2581  -10.6374   10.8079 C.3       1 <0>        -0.1314
     32 C24        -3.1448  -10.5521    9.7434 C.3       1 <0>        -0.1457
     33 H2          1.6493    1.7568   -0.2332 H         1 <0>         0.1080
     34 H3          0.1076    1.8372   -1.1192 H         1 <0>         0.0807
     35 H4          0.1152    1.8873    0.6600 H         1 <0>         0.0793
     36 H5         -1.7546   -0.1943    0.7266 H         1 <0>         0.0881
     37 H6         -1.7622   -0.2444   -1.0527 H         1 <0>         0.0900
     38 H7         -1.1164   -2.6376   -0.9880 H         1 <0>         0.1057
     39 H8         -1.1088   -2.5875    0.7912 H         1 <0>         0.1087
     40 H9         -2.6654   -5.4037   -1.0105 H         1 <0>         0.0942
     41 H10        -1.7077   -4.7564    0.3572 H         1 <0>         0.0991
     42 H11        -5.5651   -3.3609    0.3257 H         1 <0>         0.0889
     43 H12        -5.2237   -4.4761   -1.0335 H         1 <0>         0.0865
     44 H13        -5.2395   -5.7015    3.0302 H         1 <0>         0.0891
     45 H14        -4.7019   -4.0505    2.6353 H         1 <0>         0.1231
     46 H15        -7.1027   -4.0916    3.2851 H         1 <0>         0.1381
     47 H16        -6.8961   -3.5761    1.5942 H         1 <0>         0.1371
     48 H17        -7.5243   -6.3088    2.4572 H         1 <0>         0.4233
     49 H18        -7.9962   -6.6765    0.1290 H         1 <0>         0.1423
     50 H19        -7.3985   -5.0289   -0.1796 H         1 <0>         0.1357
     51 H20        -5.6161   -6.6944   -0.5938 H         1 <0>         0.1242
     52 H21        -5.7946   -7.3080    1.0682 H         1 <0>         0.0941
     53 H22        -3.3676   -7.6527    2.8841 H         1 <0>         0.3990
     54 H23        -1.3330   -6.4909    4.4611 H         1 <0>         0.0838
     55 H24        -2.9070   -5.9288    5.0733 H         1 <0>         0.0761
     56 H25        -2.1544   -8.8582    4.6681 H         1 <0>         0.0998
     57 H26        -4.5203   -7.4771    6.0188 H         1 <0>         0.0898
     58 H27        -4.5723   -8.4125    4.5045 H         1 <0>         0.1041
     59 H28        -5.3219   -9.7887    6.4270 H         1 <0>         0.1309
     60 H29        -3.8187  -10.4335    5.7264 H         1 <0>         0.1302
     61 H30        -1.6571   -9.2475    8.3543 H         1 <0>         0.1376
     62 H31        -1.7553  -10.1288    6.8115 H         1 <0>         0.1318
     63 H32        -0.8178   -7.8581    6.4788 H         1 <0>         0.1197
     64 H33        -2.2854   -7.1470    7.1941 H         1 <0>         0.0928
     65 H34        -3.4601  -11.5531    7.8451 H         1 <0>         0.1407
     66 H35        -5.8452   -9.8675    8.5990 H         1 <0>         0.0838
     67 H36        -5.7917  -11.5372    7.9517 H         1 <0>         0.0968
     68 H37        -6.3661  -11.1650   10.5595 H         1 <0>         0.0895
     69 H38        -5.2218  -12.4694   10.1015 H         1 <0>         0.0854
     70 H39        -4.5835   -9.6391   11.1005 H         1 <0>         0.0775
     71 H40        -3.9127  -11.1971   11.6771 H         1 <0>         0.0900
     72 H41        -2.4349  -11.3679    9.8794 H         1 <0>         0.1048
     73 H42        -2.6312   -9.5935    9.8164 H         1 <0>         0.0853
     74 H43        -3.9691   -8.6662    8.0634 H         1 <0>         0.4200
     75 H44        -8.6227   -5.2263    1.8816 H         1 <0>         0.4368
@<TRIPOS>BOND
     1    1    2 1
     2    1   33 1
     3    1   34 1
     4    1   35 1
     5    2    3 1
     6    3    4 1
     7    3   36 1
     8    3   37 1
     9    4    5 1
    10    4   38 1
    11    4   39 1
    12    5    6 2
    13    5    7 am
    14    7   12 1
    15    7    8 1
    16    8    9 1
    17    8   40 1
    18    8   41 1
    19    9   10 1
    20    9   11 1
    21    9   18 1
    22   11   17 1
    23   11   12 1
    24   11   13 1
    25   12   42 1
    26   12   43 1
    27   13   14 1
    28   13   44 1
    29   13   45 1
    30   14   15 1
    31   14   46 1
    32   14   47 1
    33   15   16 1
    34   15   48 1
    35   15   75 1
    36   16   17 1
    37   16   49 1
    38   16   50 1
    39   17   51 1
    40   17   52 1
    41   18   19 2
    42   18   20 am
    43   20   21 1
    44   20   53 1
    45   21   22 1
    46   21   54 1
    47   21   55 1
    48   22   27 1
    49   22   23 1
    50   22   56 1
    51   23   24 1
    52   23   57 1
    53   23   58 1
    54   24   25 1
    55   24   59 1
    56   24   60 1
    57   25   26 1
    58   25   28 1
    59   25   74 1
    60   26   27 1
    61   26   61 1
    62   26   62 1
    63   27   63 1
    64   27   64 1
    65   28   32 1
    66   28   29 1
    67   28   65 1
    68   29   30 1
    69   29   66 1
    70   29   67 1
    71   30   31 1
    72   30   68 1
    73   30   69 1
    74   31   32 1
    75   31   70 1
    76   31   71 1
    77   32   72 1
    78   32   73 1
@<TRIPOS>MOLECULE
ZINC63694344
   61    65     0     0     0
SMALL
USER_CHARGES

@<TRIPOS>ATOM
      1 C1         -0.0167    1.3781    0.0096 C.ar      1 <0>        -0.1100
      2 C2          1.1709    2.0855    0.0021 C.ar      1 <0>        -0.1169
      3 C3          2.3773    1.4107   -0.0130 C.ar      1 <0>        -0.1115
      4 C4          2.3960    0.0285   -0.0201 C.ar      1 <0>        -0.0906
      5 C5          1.2084   -0.6789   -0.0117 C.ar      1 <0>        -0.0911
      6 C6          0.0021   -0.0041    0.0020 C.ar      1 <0>        -0.1213
      7 C7          3.7112   -0.7071   -0.0376 C.3       1 <0>         0.1008
      8 H1          4.5141   -0.0495    0.2955 H         1 <0>         0.0844
      9 C8          4.0080   -1.2333   -1.4565 C.3       1 <0>        -0.1044
     10 C9          4.1124   -2.7661   -1.2870 C.3       1 <0>         0.0481
     11 H2          3.1613   -3.2439   -1.5221 H         1 <0>         0.0908
     12 N1          4.4408   -2.9340    0.1534 N.3       1 <0>        -0.5031
     13 N2          3.6384   -1.9049    0.8301 N.3       1 <0>        -0.3375
     14 C10         4.1688   -1.6176    2.1696 C.3       1 <0>         0.0745
     15 H3          3.5966   -0.8102    2.6266 H         1 <0>         0.1184
     16 C11         5.6483   -1.2117    2.0663 C.3       1 <0>        -0.1504
     17 C12         6.2971   -1.2199    3.4714 C.3       1 <0>        -0.5775
     18 S1          5.3020   -2.4799    4.3685 S.o2      1 <0>         2.3722
     19 O1          4.6269   -1.8518    5.4496 O.2       1 <0>        -0.9263
     20 O2          6.1147   -3.6185    4.6184 O.2       1 <0>        -0.9311
     21 C13         4.0775   -2.8929    3.0554 C.3       1 <0>        -0.5722
     22 C14         5.2124   -3.3222   -2.1539 C.2       1 <0>         0.5328
     23 O3          6.2934   -3.5825   -1.6694 O.2       1 <0>        -0.4939
     24 N3          4.9950   -3.5304   -3.4676 N.am      1 <0>        -0.7395
     25 C15         6.0644   -4.0710   -4.3104 C.3       1 <0>         0.1158
     26 C16         5.5601   -4.2091   -5.7483 C.3       1 <0>        -0.1569
     27 C17         6.6769   -4.7738   -6.6285 C.3       1 <0>         0.2547
     28 N4          7.8092   -3.8397   -6.6671 N.pl3     1 <0>        -0.4692
     29 C18         7.9773   -3.4808   -7.9069 C.ar      1 <0>         0.3241
     30 C19         8.9337   -2.5802   -8.5654 C.ar      1 <0>        -0.1402
     31 C20         8.8656   -2.3979   -9.8993 C.ar      1 <0>         0.0362
     32 C21         7.9068   -3.0388  -10.7040 C.ar      1 <0>         0.0388
     33 C22         6.9840   -3.8835  -10.2019 C.ar      1 <0>        -0.1416
     34 C23         6.9628   -4.1595   -8.7588 C.ar      1 <0>         0.3255
     35 N5          6.2067   -4.9118   -8.0126 N.pl3     1 <0>        -0.4679
     36 H4         -0.9591    1.9053    0.0259 H         1 <0>         0.1256
     37 H5          1.1563    3.1654    0.0076 H         1 <0>         0.1261
     38 H6          3.3051    1.9634   -0.0196 H         1 <0>         0.1204
     39 H7          1.2231   -1.7588   -0.0176 H         1 <0>         0.1239
     40 H8         -0.9258   -0.5567    0.0082 H         1 <0>         0.1242
     41 H9          3.1929   -0.9801   -2.1344 H         1 <0>         0.0918
     42 H10         4.9500   -0.8261   -1.8239 H         1 <0>         0.0801
     43 H11         4.1916   -3.8571    0.4759 H         1 <0>         0.3623
     44 H12         6.1728   -1.9169    1.4215 H         1 <0>         0.1058
     45 H13         5.7202   -0.2110    1.6403 H         1 <0>         0.0905
     46 H14         7.3425   -1.5230    3.4128 H         1 <0>         0.1427
     47 H15         6.2029   -0.2433    3.9463 H         1 <0>         0.1408
     48 H16         3.0777   -3.0123    3.4726 H         1 <0>         0.1484
     49 H17         4.3793   -3.7810    2.5000 H         1 <0>         0.1392
     50 H18         4.1305   -3.3222   -3.8551 H         1 <0>         0.4100
     51 H19         6.9203   -3.3964   -4.2888 H         1 <0>         0.0717
     52 H20         6.3635   -5.0496   -3.9348 H         1 <0>         0.0971
     53 H21         4.7042   -4.8837   -5.7699 H         1 <0>         0.1531
     54 H22         5.2610   -3.2306   -6.1240 H         1 <0>         0.1224
     55 H23         7.0018   -5.7412   -6.2455 H         1 <0>         0.2439
     56 H24         9.6860   -2.0674   -7.9844 H         1 <0>         0.2067
     57 H25         9.5754   -1.7329  -10.3686 H         1 <0>         0.2049
     58 H26         7.9097   -2.8464  -11.7668 H         1 <0>         0.2049
     59 H27         6.2649   -4.3542  -10.8560 H         1 <0>         0.2068
     60 H28         8.3353   -3.5440   -5.9077 H         1 <0>         0.4959
     61 H29         5.4682   -5.4629   -8.3155 H         1 <0>         0.4968
@<TRIPOS>BOND
     1    1    6 ar
     2    1    2 ar
     3    1   36 1
     4    2    3 ar
     5    2   37 1
     6    3    4 ar
     7    3   38 1
     8    4    5 ar
     9    4    7 1
    10    5    6 ar
    11    5   39 1
    12    6   40 1
    13    7    8 1
    14    7   13 1
    15    7    9 1
    16    9   10 1
    17    9   41 1
    18    9   42 1
    19   10   11 1
    20   10   12 1
    21   10   22 1
    22   12   13 1
    23   12   43 1
    24   13   14 1
    25   14   15 1
    26   14   21 1
    27   14   16 1
    28   16   17 1
    29   16   44 1
    30   16   45 1
    31   17   18 1
    32   17   46 1
    33   17   47 1
    34   18   19 2
    35   18   20 2
    36   18   21 1
    37   21   48 1
    38   21   49 1
    39   22   23 2
    40   22   24 am
    41   24   25 1
    42   24   50 1
    43   25   26 1
    44   25   51 1
    45   25   52 1
    46   26   27 1
    47   26   53 1
    48   26   54 1
    49   27   35 1
    50   27   28 1
    51   27   55 1
    52   28   29 2
    53   28   60 1
    54   29   34 ar
    55   29   30 ar
    56   30   31 ar
    57   30   56 1
    58   31   32 ar
    59   31   57 1
    60   32   33 ar
    61   32   58 1
    62   33   34 ar
    63   33   59 1
    64   34   35 2
    65   35   61 1
@<TRIPOS>MOLECULE
ZINC64648345
   57    60     0     0     0
SMALL
USER_CHARGES

@<TRIPOS>ATOM
      1 C1         -0.5188    1.4303   -0.9614 C.3       1 <0>        -0.1631
      2 C2         -0.4245   -0.0413   -0.6507 C.ar      1 <0>         0.0908
      3 C3         -0.2301   -0.9440   -1.7112 C.ar      1 <0>         0.0355
      4 C4         -0.1350   -2.2756   -1.5239 C.ar      1 <0>        -0.1329
      5 C5         -0.2354   -2.8256   -0.1650 C.ar      1 <0>         0.3227
      6 N1         -0.1818   -4.0382    0.3052 N.pl3     1 <0>        -0.4670
      7 C6         -0.3481   -3.9538    1.7616 C.3       1 <0>         0.2452
      8 H1          0.5337   -4.3529    2.2627 H         1 <0>         0.2507
      9 N2         -0.5060   -2.5288    2.0784 N.pl3     1 <0>        -0.4820
     10 C7         -0.4406   -1.8700    0.9576 C.ar      1 <0>         0.3166
     11 C8         -0.5244   -0.4392    0.6334 C.ar      1 <0>        -0.1677
     12 C9         -1.5937   -4.7302    2.1938 C.3       1 <0>         0.1006
     13 N3         -2.7705   -4.1830    1.5142 N.am      1 <0>        -0.7676
     14 C10        -3.9881   -4.7136    1.7427 C.2       1 <0>         0.4923
     15 O1         -4.1096   -5.6441    2.5110 O.2       1 <0>        -0.4666
     16 C11        -5.1987   -4.1507    1.0436 C.3       1 <0>         0.1006
     17 N4         -6.3696   -4.9739    1.3558 N.pl3     1 <0>        -0.9829
     18 C12        -7.1147   -4.7471    2.5966 C.3       1 <0>         0.0851
     19 S1         -6.8511   -6.1607    0.3060 S.o2      1 <0>         2.6900
     20 O2         -8.1777   -6.5137    0.6729 O.2       1 <0>        -0.9235
     21 O3         -6.5162   -5.7089   -0.9990 O.2       1 <0>        -0.9496
     22 C13        -5.8480   -7.5743    0.6224 C.ar      1 <0>        -0.6772
     23 C14        -4.6482   -7.7320   -0.0483 C.ar      1 <0>        -0.0086
     24 C15        -3.8603   -8.8417    0.2003 C.ar      1 <0>         0.0415
     25 C16        -4.2788   -9.7972    1.1257 C.ar      1 <0>         0.1688
     26 C17        -5.4801   -9.6333    1.7943 C.ar      1 <0>        -0.1446
     27 C18        -6.2602   -8.5187    1.5439 C.ar      1 <0>         0.0542
     28 C19        -7.5654   -8.3356    2.2746 C.3       1 <0>        -0.1487
     29 N5         -3.4712  -10.9177    1.3667 N.am      1 <0>        -0.6619
     30 C20        -2.1857  -10.8997    0.9518 C.2       1 <0>         0.4867
     31 O4         -1.4774  -11.8694    1.1219 O.2       1 <0>        -0.4844
     32 C21        -1.6353   -9.6696    0.2761 C.3       1 <0>         0.0521
     33 O5         -2.6778   -9.0124   -0.4491 O.3       1 <0>        -0.3012
     34 H2          0.4768    1.8729   -0.9299 H         1 <0>         0.1334
     35 H3         -0.9450    1.5652   -1.9555 H         1 <0>         0.1162
     36 H4         -1.1564    1.9174   -0.2236 H         1 <0>         0.1124
     37 H5         -0.1544   -0.5551   -2.7158 H         1 <0>         0.2062
     38 H6          0.0137   -2.9339   -2.3671 H         1 <0>         0.2105
     39 H7         -0.6691    0.2884    1.4183 H         1 <0>         0.2053
     40 H8         -1.4769   -5.7810    1.9288 H         1 <0>         0.1461
     41 H9         -1.7222   -4.6396    3.2724 H         1 <0>         0.1501
     42 H10        -2.6733   -3.4387    0.8997 H         1 <0>         0.3900
     43 H11        -5.3718   -3.1293    1.3825 H         1 <0>         0.1280
     44 H12        -5.0299   -4.1525   -0.0333 H         1 <0>         0.1271
     45 H13        -7.9593   -4.0874    2.3979 H         1 <0>         0.0753
     46 H14        -7.4800   -5.6996    2.9803 H         1 <0>         0.0855
     47 H15        -6.4590   -4.2854    3.3349 H         1 <0>         0.0769
     48 H16        -4.3271   -6.9900   -0.7644 H         1 <0>         0.1438
     49 H17        -5.8058  -10.3721    2.5116 H         1 <0>         0.1496
     50 H18        -8.3771   -8.7525    1.6784 H         1 <0>         0.1057
     51 H19        -7.5193   -8.8491    3.2350 H         1 <0>         0.0822
     52 H20        -7.7439   -7.2730    2.4390 H         1 <0>         0.0872
     53 H21        -3.8300  -11.6939    1.8247 H         1 <0>         0.4261
     54 H22        -1.2335   -8.9913    1.0288 H         1 <0>         0.0924
     55 H23        -0.8410   -9.9585   -0.4122 H         1 <0>         0.1514
     56 H24        -0.0555   -4.8492   -0.2119 H         1 <0>         0.4979
     57 H25        -0.6353   -2.1480    2.9611 H         1 <0>         0.4967
@<TRIPOS>BOND
     1    1    2 1
     2    1   34 1
     3    1   35 1
     4    1   36 1
     5    2   11 ar
     6    2    3 ar
     7    3    4 ar
     8    3   37 1
     9    4    5 ar
    10    4   38 1
    11    5   10 ar
    12    5    6 2
    13    6    7 1
    14    6   56 1
    15    7    8 1
    16    7    9 1
    17    7   12 1
    18    9   10 2
    19    9   57 1
    20   10   11 ar
    21   11   39 1
    22   12   13 1
    23   12   40 1
    24   12   41 1
    25   13   14 am
    26   13   42 1
    27   14   15 2
    28   14   16 1
    29   16   17 1
    30   16   43 1
    31   16   44 1
    32   17   18 1
    33   17   19 1
    34   18   45 1
    35   18   46 1
    36   18   47 1
    37   19   20 2
    38   19   21 2
    39   19   22 1
    40   22   27 ar
    41   22   23 ar
    42   23   24 ar
    43   23   48 1
    44   24   33 1
    45   24   25 ar
    46   25   26 ar
    47   25   29 1
    48   26   27 ar
    49   26   49 1
    50   27   28 1
    51   28   50 1
    52   28   51 1
    53   28   52 1
    54   29   30 am
    55   29   53 1
    56   30   31 2
    57   30   32 1
    58   32   33 1
    59   32   54 1
    60   32   55 1
@<TRIPOS>MOLECULE
ZINC12496822
   63    67     0     0     0
SMALL
USER_CHARGES
methyl (3aS,4S,6S,6aS)-4-(2,4-dimethoxyphenyl)-2-(4-fluorophenyl)-1,3-dioxo-6-phenyl-3a,4,5,6a-tetrahydropyrrolo[3,4-c]pyrrole-6-carboxylate
@<TRIPOS>ATOM
      1 C1          6.1384    2.3073    0.3179 C.3       1 <0>         0.0204
      2 O1          4.9472    1.5180    0.3140 O.3       1 <0>        -0.3034
      3 C2          3.7646    2.1860    0.2684 C.ar      1 <0>         0.2034
      4 C3          3.7516    3.5733    0.2282 C.ar      1 <0>        -0.2278
      5 C4          2.5497    4.2529    0.1813 C.ar      1 <0>        -0.0416
      6 C5          1.3577    3.5537    0.1743 C.ar      1 <0>        -0.2205
      7 C6          1.3654    2.1668    0.2144 C.ar      1 <0>         0.2179
      8 C7          2.5702    1.4825    0.2668 C.ar      1 <0>        -0.2342
      9 O2          0.1929    1.4797    0.2080 O.3       1 <0>        -0.2987
     10 C8          0.2762    0.0538    0.2509 C.3       1 <0>         0.0245
     11 C9          0.0484    4.2981    0.1227 C.3       1 <0>         0.1643
     12 H1         -0.6689    3.8696    0.8226 H         1 <0>         0.1759
     13 C10        -0.4968    4.3115   -1.2490 C.3       1 <0>        -0.1754
     14 H2          0.2419    4.8466   -1.8458 H         1 <0>         0.1313
     15 C11        -1.5694    5.4702   -1.1439 C.3       1 <0>        -0.1521
     16 H3         -2.4414    5.2217   -0.5390 H         1 <0>         0.1902
     17 C12        -1.8725    5.5331   -2.6161 C.2       1 <0>         0.5407
     18 O3         -2.1295    6.5207   -3.2706 O.2       1 <0>        -0.4037
     19 N1         -1.7977    4.2428   -3.0604 N.am      1 <0>        -0.5290
     20 C13        -1.1459    3.4162   -2.1789 C.2       1 <0>         0.5850
     21 O4         -1.1203    2.2042   -2.1807 O.2       1 <0>        -0.3957
     22 C14        -2.3299    3.8098   -4.2840 C.ar      1 <0>         0.0993
     23 C15        -2.9811    4.7101   -5.1160 C.ar      1 <0>        -0.1060
     24 C16        -3.5010    4.2828   -6.3221 C.ar      1 <0>        -0.1277
     25 C17        -3.3810    2.9552   -6.6973 C.ar      1 <0>         0.1070
     26 C18        -2.7359    2.0547   -5.8664 C.ar      1 <0>        -0.1278
     27 C19        -2.2109    2.4793   -4.6615 C.ar      1 <0>        -0.1036
     28 F1         -3.8943    2.5380   -7.8753 F         1 <0>        -0.1279
     29 C20        -0.6698    6.5183   -0.4925 C.3       1 <0>         0.1585
     30 C21        -1.4967    7.4947    0.3037 C.ar      1 <0>        -0.1366
     31 C22        -2.7906    7.7845   -0.0874 C.ar      1 <0>        -0.0635
     32 C23        -3.5509    8.6762    0.6459 C.ar      1 <0>        -0.0997
     33 C24        -3.0137    9.2863    1.7640 C.ar      1 <0>        -0.0763
     34 C25        -1.7180    9.0008    2.1518 C.ar      1 <0>        -0.0989
     35 C26        -0.9596    8.1048    1.4217 C.ar      1 <0>        -0.1154
     36 C27         0.1297    7.2461   -1.5423 C.2       1 <0>         0.4311
     37 O5         -0.2821    8.2842   -2.0035 O.2       1 <0>        -0.3974
     38 O6          1.2993    6.7411   -1.9650 O.3       1 <0>        -0.3736
     39 C28         2.0154    7.4956   -2.9781 C.3       1 <0>         0.0346
     40 H4          7.0084    1.6519    0.3561 H         1 <0>         0.1121
     41 H5          6.1775    2.9105   -0.5892 H         1 <0>         0.0634
     42 H6          6.1378    2.9617    1.1896 H         1 <0>         0.0640
     43 H7          4.6818    4.1220    0.2339 H         1 <0>         0.1455
     44 H8          2.5416    5.3324    0.1504 H         1 <0>         0.1224
     45 H9          2.5781    0.4031    0.3022 H         1 <0>         0.1534
     46 H10        -0.7282   -0.3693    0.2407 H         1 <0>         0.1118
     47 H11         0.8301   -0.3040   -0.6170 H         1 <0>         0.0659
     48 H12         0.7904   -0.2529    1.1618 H         1 <0>         0.0647
     49 H13        -3.0784    5.7447   -4.8218 H         1 <0>         0.1562
     50 H14        -4.0044    4.9837   -6.9714 H         1 <0>         0.1502
     51 H15        -2.6435    1.0196   -6.1604 H         1 <0>         0.1507
     52 H16        -1.7079    1.7767   -4.0137 H         1 <0>         0.1595
     53 H17        -3.2087    7.3112   -0.9635 H         1 <0>         0.1342
     54 H18        -4.5634    8.8990    0.3431 H         1 <0>         0.1440
     55 H19        -3.6065    9.9857    2.3347 H         1 <0>         0.1424
     56 H20        -1.2983    9.4774    3.0253 H         1 <0>         0.1430
     57 H21         0.0528    7.8817    1.7247 H         1 <0>         0.1237
     58 H22         1.3956    7.5853   -3.8702 H         1 <0>         0.0794
     59 H23         2.2469    8.4895   -2.5951 H         1 <0>         0.0813
     60 H24         2.9414    6.9784   -3.2295 H         1 <0>         0.1218
     61 N2          0.2449    5.7588    0.3834 N.4       1 <0>        -0.5246
     62 H25         1.2166    6.0195    0.1786 H         1 <0>         0.4382
     63 H26         0.0348    5.9664    1.3668 H         1 <0>         0.4493
@<TRIPOS>BOND
     1    1    2 1
     2    1   40 1
     3    1   41 1
     4    1   42 1
     5    2    3 1
     6    3    8 ar
     7    3    4 ar
     8    4    5 ar
     9    4   43 1
    10    5    6 ar
    11    5   44 1
    12    6    7 ar
    13    6   11 1
    14    7    8 ar
    15    7    9 1
    16    8   45 1
    17    9   10 1
    18   10   46 1
    19   10   47 1
    20   10   48 1
    21   11   12 1
    22   11   13 1
    23   11   61 1
    24   13   14 1
    25   13   20 1
    26   13   15 1
    27   15   16 1
    28   15   17 1
    29   15   29 1
    30   17   18 2
    31   17   19 am
    32   19   20 am
    33   19   22 1
    34   20   21 2
    35   22   27 ar
    36   22   23 ar
    37   23   24 ar
    38   23   49 1
    39   24   25 ar
    40   24   50 1
    41   25   26 ar
    42   25   28 1
    43   26   27 ar
    44   26   51 1
    45   27   52 1
    46   29   30 1
    47   29   36 1
    48   29   61 1
    49   30   35 ar
    50   30   31 ar
    51   31   32 ar
    52   31   53 1
    53   32   33 ar
    54   32   54 1
    55   33   34 ar
    56   33   55 1
    57   34   35 ar
    58   34   56 1
    59   35   57 1
    60   36   37 2
    61   36   38 1
    62   38   39 1
    63   39   58 1
    64   39   59 1
    65   39   60 1
    66   61   62 1
    67   61   63 1
@<TRIPOS>MOLECULE
ZINC14983053
   74    78     0     0     0
SMALL
USER_CHARGES
(5S)-5-benzyl-3-(3-pyridylmethyl)-5-[1-[(2,4,5-trimethylphenyl)methyl]-4-piperidyl]imidazolidine-2,4-dione
@<TRIPOS>ATOM
      1 C1         -0.4054    4.2422   -8.0603 C.3       1 <0>        -0.1335
      2 C2          0.2462    3.4976   -6.9236 C.ar      1 <0>        -0.0430
      3 C3          1.1207    4.1547   -6.0780 C.ar      1 <0>        -0.1120
      4 C4          1.7138    3.4732   -5.0320 C.ar      1 <0>        -0.0656
      5 C5          1.4415    2.1316   -4.8382 C.ar      1 <0>        -0.1665
      6 C6          0.5676    1.4747   -5.6838 C.ar      1 <0>        -0.0849
      7 C7         -0.0301    2.1578   -6.7266 C.ar      1 <0>        -0.0834
      8 C8         -0.9833    1.4416   -7.6484 C.3       1 <0>        -0.1275
      9 C9          2.0927    1.3871   -3.7012 C.3       1 <0>         0.0491
     10 C10         2.1183    1.1685   -1.2904 C.3       1 <0>         0.0017
     11 C11         1.4233    1.6171   -0.0028 C.3       1 <0>        -0.1523
     12 C12        -0.0127    1.0858    0.0080 C.3       1 <0>        -0.0935
     13 C13        -0.7462    1.5945   -1.2361 C.3       1 <0>        -0.1443
     14 C14         0.0117    1.1465   -2.4879 C.3       1 <0>        -0.0020
     15 C15        -0.7314    1.5805    1.2649 C.3       1 <0>         0.1353
     16 C16         0.0467    1.1999    2.5088 C.2       1 <0>         0.5345
     17 O1          0.3148    0.0811    2.8911 O.2       1 <0>        -0.4539
     18 N1          0.3775    2.3639    3.1020 N.am      1 <0>        -0.5668
     19 C17        -0.0786    3.4161    2.4129 C.2       1 <0>         0.7047
     20 O2          0.0946    4.5709    2.7498 O.2       1 <0>        -0.5233
     21 N2         -0.7504    3.0529    1.3054 N.am      1 <0>        -0.7210
     22 C18         1.1429    2.4647    4.3471 C.3       1 <0>         0.1645
     23 C19         0.1965    2.4631    5.5200 C.ar      1 <0>        -0.1779
     24 C20        -0.1753    1.2697    6.1205 C.ar      1 <0>        -0.0482
     25 C21        -1.0481    1.3164    7.1965 C.ar      1 <0>        -0.1756
     26 C22        -1.5154    2.5423    7.6319 C.ar      1 <0>         0.1147
     27 N3         -1.1403    3.6573    7.0365 N.ar      1 <0>        -0.4792
     28 C23        -0.3072    3.6511    6.0141 C.ar      1 <0>         0.1317
     29 C24        -2.1546    1.0220    1.3242 C.3       1 <0>        -0.0745
     30 C25        -2.8800    1.6195    2.5023 C.ar      1 <0>        -0.1084
     31 C26        -2.8355    0.9909    3.7326 C.ar      1 <0>        -0.1095
     32 C27        -3.4976    1.5410    4.8142 C.ar      1 <0>        -0.1087
     33 C28        -4.2114    2.7152    4.6633 C.ar      1 <0>        -0.1041
     34 C29        -4.2599    3.3412    3.4318 C.ar      1 <0>        -0.1142
     35 C30        -3.5946    2.7931    2.3512 C.ar      1 <0>        -0.1030
     36 C31         2.6619    4.1910   -4.1063 C.3       1 <0>        -0.1250
     37 H1         -1.3466    4.6738   -7.7198 H         1 <0>         0.0824
     38 H2          0.2572    5.0381   -8.4005 H         1 <0>         0.0752
     39 H3         -0.5980    3.5534   -8.8828 H         1 <0>         0.0799
     40 H4          1.3369    5.2015   -6.2321 H         1 <0>         0.1348
     41 H5          0.3514    0.4278   -5.5297 H         1 <0>         0.1315
     42 H6         -1.9971    1.5213   -7.2559 H         1 <0>         0.0782
     43 H7         -0.9405    1.8947   -8.6388 H         1 <0>         0.0788
     44 H8         -0.7019    0.3908   -7.7170 H         1 <0>         0.0717
     45 H9          3.1321    1.7021   -3.6087 H         1 <0>         0.1346
     46 H10         2.0538    0.3159   -3.8988 H         1 <0>         0.1380
     47 H11         3.1365    1.5571   -1.3079 H         1 <0>         0.1325
     48 H12         2.1446    0.0795   -1.3284 H         1 <0>         0.1365
     49 H13         1.4088    2.7061    0.0424 H         1 <0>         0.0937
     50 H14         1.9634    1.2237    0.8583 H         1 <0>         0.1112
     51 H15         0.0021   -0.0041    0.0020 H         1 <0>         0.1179
     52 H16        -1.7561    1.1848   -1.2561 H         1 <0>         0.1221
     53 H17        -0.7948    2.6831   -1.2102 H         1 <0>         0.0902
     54 H18        -0.5001    1.5192   -3.3752 H         1 <0>         0.1331
     55 H19         0.0480    0.0576   -2.5201 H         1 <0>         0.1347
     56 H20        -1.1666    3.6452    0.6597 H         1 <0>         0.4375
     57 H21         1.8212    1.6151    4.4264 H         1 <0>         0.1072
     58 H22         1.7184    3.3903    4.3459 H         1 <0>         0.1109
     59 H23         0.2057    0.3263    5.7583 H         1 <0>         0.1345
     60 H24        -1.3593    0.4065    7.6881 H         1 <0>         0.1379
     61 H25        -2.1954    2.5873    8.4698 H         1 <0>         0.1577
     62 H26        -0.0187    4.5852    5.5551 H         1 <0>         0.1556
     63 H27        -2.6831    1.2757    0.4053 H         1 <0>         0.0963
     64 H28        -2.1153   -0.0618    1.4333 H         1 <0>         0.1006
     65 H29        -2.2808    0.0716    3.8496 H         1 <0>         0.1182
     66 H30        -3.4601    1.0517    5.7763 H         1 <0>         0.1205
     67 H31        -4.7316    3.1432    5.5075 H         1 <0>         0.1233
     68 H32        -4.8179    4.2583    3.3139 H         1 <0>         0.1239
     69 H33        -3.6327    3.2820    1.3889 H         1 <0>         0.1171
     70 H34         3.6770    4.1158   -4.4961 H         1 <0>         0.0892
     71 H35         2.3764    5.2406   -4.0363 H         1 <0>         0.0854
     72 H36         2.6180    3.7358   -3.1168 H         1 <0>         0.0451
     73 N4          1.3776    1.7106   -2.4494 N.4       1 <0>        -0.3958
     74 H37         1.3139    2.7312   -2.3561 H         1 <0>         0.4233
@<TRIPOS>BOND
     1    1    2 1
     2    1   37 1
     3    1   38 1
     4    1   39 1
     5    2    7 ar
     6    2    3 ar
     7    3    4 ar
     8    3   40 1
     9    4    5 ar
    10    4   36 1
    11    5    6 ar
    12    5    9 1
    13    6    7 ar
    14    6   41 1
    15    7    8 1
    16    8   42 1
    17    8   43 1
    18    8   44 1
    19    9   45 1
    20    9   46 1
    21    9   73 1
    22   10   11 1
    23   10   47 1
    24   10   48 1
    25   10   73 1
    26   11   12 1
    27   11   49 1
    28   11   50 1
    29   12   13 1
    30   12   15 1
    31   12   51 1
    32   13   14 1
    33   13   52 1
    34   13   53 1
    35   14   54 1
    36   14   55 1
    37   14   73 1
    38   15   21 1
    39   15   16 1
    40   15   29 1
    41   16   17 2
    42   16   18 am
    43   18   19 am
    44   18   22 1
    45   19   20 2
    46   19   21 am
    47   21   56 1
    48   22   23 1
    49   22   57 1
    50   22   58 1
    51   23   28 ar
    52   23   24 ar
    53   24   25 ar
    54   24   59 1
    55   25   26 ar
    56   25   60 1
    57   26   27 ar
    58   26   61 1
    59   27   28 ar
    60   28   62 1
    61   29   30 1
    62   29   63 1
    63   29   64 1
    64   30   35 ar
    65   30   31 ar
    66   31   32 ar
    67   31   65 1
    68   32   33 ar
    69   32   66 1
    70   33   34 ar
    71   33   67 1
    72   34   35 ar
    73   34   68 1
    74   35   69 1
    75   36   70 1
    76   36   71 1
    77   36   72 1
    78   73   74 1
@<TRIPOS>MOLECULE
ZINC30978463
   56    60     0     0     0
SMALL
USER_CHARGES
1-[[3-(3-bromophenyl)-1,2,4-oxadiazol-5-yl]methyl]-N-(2,3-dihydro-1,4-benzodioxin-6-yl)piperidine-4-carboxamide
@<TRIPOS>ATOM
      1 C1         11.7977   -3.5694   -7.0271 C.ar      1 <0>        -0.1088
      2 C2         10.9197   -4.2759   -6.2298 C.ar      1 <0>        -0.0626
      3 C3         10.7410   -3.9080   -4.8981 C.ar      1 <0>        -0.0420
      4 C4         11.4461   -2.8240   -4.3793 C.ar      1 <0>        -0.0444
      5 C5         12.3262   -2.1275   -5.1838 C.ar      1 <0>        -0.0970
      6 C6         12.4996   -2.4978   -6.5063 C.ar      1 <0>        -0.0578
      7 Br1        13.2902   -0.6608   -4.4799 Br        1 <0>        -0.0252
      8 C7          9.7982   -4.6643   -4.0366 C.2       1 <0>         0.2336
      9 N1          9.5279   -4.4195   -2.7346 N.2       1 <0>        -0.4263
     10 C8          8.6484   -5.3237   -2.3818 C.2       1 <0>         0.1030
     11 O1          8.4144   -6.0849   -3.4553 O.3       1 <0>         0.1177
     12 N2          9.0741   -5.6926   -4.3945 N.2       1 <0>        -0.3385
     13 C9          8.0228   -5.4803   -1.0198 C.3       1 <0>         0.1072
     14 N3          6.7936   -4.6789   -0.9505 N.4       1 <0>        -0.4036
     15 C10         6.0324   -4.9871    0.2669 C.3       1 <0>        -0.0016
     16 C11         4.6941   -4.2456    0.2347 C.3       1 <0>        -0.1292
     17 C12         4.9528   -2.7394    0.1397 C.3       1 <0>        -0.1197
     18 C13         5.7883   -2.4509   -1.1106 C.3       1 <0>        -0.1399
     19 C14         7.0949   -3.2445   -1.0395 C.3       1 <0>        -0.0079
     20 C15         3.6387   -2.0075    0.0473 C.2       1 <0>         0.5160
     21 O2          2.5968   -2.6284    0.0564 O.2       1 <0>        -0.5094
     22 N4          3.6213   -0.6630   -0.0455 N.am      1 <0>        -0.6754
     23 C16         2.4012    0.0251   -0.0202 C.ar      1 <0>         0.1417
     24 C17         1.3455   -0.4605    0.7399 C.ar      1 <0>        -0.1144
     25 C18         0.1419    0.2167    0.7637 C.ar      1 <0>        -0.0930
     26 C19        -0.0164    1.3829    0.0295 C.ar      1 <0>         0.0452
     27 C20         1.0394    1.8728   -0.7301 C.ar      1 <0>         0.0723
     28 C21         2.2469    1.1920   -0.7550 C.ar      1 <0>        -0.1381
     29 O3          0.9058    3.0202   -1.4503 O.3       1 <0>        -0.3064
     30 C22        -0.4296    3.4725   -1.6990 C.3       1 <0>         0.0173
     31 C23        -1.2164    3.3945   -0.3837 C.3       1 <0>         0.0173
     32 O4         -1.2132    2.0324    0.0591 O.3       1 <0>        -0.3035
     33 H1         11.9364   -3.8539   -8.0597 H         1 <0>         0.1482
     34 H2         10.3718   -5.1124   -6.6380 H         1 <0>         0.1398
     35 H3         11.3079   -2.5319   -3.3488 H         1 <0>         0.1449
     36 H4         13.1852   -1.9476   -7.1337 H         1 <0>         0.1462
     37 H5          7.7803   -6.5393   -0.8473 H         1 <0>         0.1733
     38 H6          8.7291   -5.1358   -0.2501 H         1 <0>         0.1731
     39 H7          5.8496   -6.0705    0.3206 H         1 <0>         0.1447
     40 H8          6.6067   -4.6680    1.1491 H         1 <0>         0.1366
     41 H9          4.1131   -4.5755   -0.6392 H         1 <0>         0.1017
     42 H10         4.1309   -4.4654    1.1536 H         1 <0>         0.1266
     43 H11         5.4834   -2.3898    1.0376 H         1 <0>         0.1226
     44 H12         5.2237   -2.7502   -2.0060 H         1 <0>         0.0976
     45 H13         6.0129   -1.3753   -1.1614 H         1 <0>         0.1200
     46 H14         7.6643   -2.9336   -0.1512 H         1 <0>         0.1401
     47 H15         7.6909   -3.0504   -1.9434 H         1 <0>         0.1335
     48 H16         4.5650   -0.1060   -0.1411 H         1 <0>         0.4341
     49 H17         1.4657   -1.3679    1.3130 H         1 <0>         0.1414
     50 H18        -0.6782   -0.1630    1.3551 H         1 <0>         0.1418
     51 H19         3.0676    1.5698   -1.3468 H         1 <0>         0.1377
     52 H20        -0.4035    4.5104   -2.0624 H         1 <0>         0.1288
     53 H21        -0.8990    2.8299   -2.4584 H         1 <0>         0.0815
     54 H22        -0.7372    4.0379    0.3689 H         1 <0>         0.0822
     55 H23        -2.2487    3.7346   -0.5532 H         1 <0>         0.1291
     56 H24         6.1662   -4.9438   -1.8143 H         1 <0>         0.4482
@<TRIPOS>BOND
     1    1    6 ar
     2    1    2 ar
     3    1   33 1
     4    2    3 ar
     5    2   34 1
     6    3    4 ar
     7    3    8 1
     8    4    5 ar
     9    4   35 1
    10    5    6 ar
    11    5    7 1
    12    6   36 1
    13    8   12 2
    14    8    9 1
    15    9   10 2
    16   10   11 1
    17   10   13 1
    18   11   12 1
    19   13   14 1
    20   13   37 1
    21   13   38 1
    22   14   19 1
    23   14   15 1
    24   14   56 1
    25   15   16 1
    26   15   39 1
    27   15   40 1
    28   16   17 1
    29   16   41 1
    30   16   42 1
    31   17   18 1
    32   17   20 1
    33   17   43 1
    34   18   19 1
    35   18   44 1
    36   18   45 1
    37   19   46 1
    38   19   47 1
    39   20   21 2
    40   20   22 am
    41   22   23 1
    42   22   48 1
    43   23   28 ar
    44   23   24 ar
    45   24   25 ar
    46   24   49 1
    47   25   26 ar
    48   25   50 1
    49   26   32 1
    50   26   27 ar
    51   27   28 ar
    52   27   29 1
    53   28   51 1
    54   29   30 1
    55   30   31 1
    56   30   52 1
    57   30   53 1
    58   31   32 1
    59   31   54 1
    60   31   55 1
@<TRIPOS>MOLECULE
ZINC44874368
   68    72     0     0     0
SMALL
USER_CHARGES

@<TRIPOS>ATOM
      1 C1         -0.0167    1.3781    0.0096 C.ar      1 <0>        -0.0551
      2 C2          1.1709    2.0855    0.0021 C.ar      1 <0>        -0.1378
      3 C3          2.3773    1.4107   -0.0130 C.ar      1 <0>        -0.0228
      4 C4          2.3960    0.0285   -0.0201 C.ar      1 <0>        -0.6804
      5 C5          1.2084   -0.6789   -0.0117 C.ar      1 <0>        -0.0182
      6 C6          0.0021   -0.0041    0.0020 C.ar      1 <0>        -0.1330
      7 S1          3.9337   -0.8316   -0.0405 S.o2      1 <0>         2.6903
      8 O1          3.6744   -2.1140   -0.5951 O.2       1 <0>        -0.9309
      9 O2          4.8903    0.0598   -0.5970 O.2       1 <0>        -0.9483
     10 N1          4.3776   -1.0785    1.5357 N.pl3     1 <0>        -0.9379
     11 C7          5.1921   -0.0891    2.2619 C.3       1 <0>         0.0821
     12 C8          6.2418   -0.8600    3.0751 C.3       1 <0>         0.0681
     13 H1          6.8853   -1.4239    2.3997 H         1 <0>         0.1082
     14 O3          5.5697   -1.7601    3.9593 O.3       1 <0>        -0.2789
     15 C9          4.6030   -2.5592    3.4350 C.ar      1 <0>         0.0978
     16 C10         3.9857   -2.2353    2.2278 C.ar      1 <0>         0.0918
     17 C11         2.9946   -3.0526    1.7093 C.ar      1 <0>        -0.1361
     18 C12         2.6137   -4.1928    2.3936 C.ar      1 <0>        -0.1082
     19 C13         3.2210   -4.5161    3.5923 C.ar      1 <0>        -0.1004
     20 C14         4.2205   -3.7072    4.1112 C.ar      1 <0>        -0.1122
     21 C15         7.0741    0.1097    3.8737 C.2       1 <0>         0.5268
     22 O4          7.0307    0.0913    5.0856 O.2       1 <0>        -0.4916
     23 N2          7.8667    0.9975    3.2412 N.am      1 <0>        -0.7268
     24 C16         8.6759    1.9403    4.0175 C.3       1 <0>         0.1531
     25 C17         9.4650    2.8164    3.0790 C.ar      1 <0>        -0.0731
     26 C18        10.7247    2.4263    2.6644 C.ar      1 <0>        -0.0940
     27 C19        11.4486    3.2299    1.8035 C.ar      1 <0>        -0.0965
     28 C20        10.9127    4.4234    1.3570 C.ar      1 <0>        -0.1515
     29 C21         9.6526    4.8130    1.7710 C.ar      1 <0>        -0.0926
     30 C22         8.9270    4.0073    2.6284 C.ar      1 <0>        -0.0935
     31 C23        11.7023    5.2999    0.4193 C.3       1 <0>         0.0424
     32 N3         11.4002    4.9283   -0.9694 N.4       1 <0>        -0.3814
     33 C24        11.8656    3.5589   -1.2201 C.3       1 <0>        -0.0132
     34 C25        11.4813    3.1375   -2.6401 C.3       1 <0>        -0.1454
     35 C26        12.1339    4.0920   -3.6442 C.3       1 <0>        -0.1393
     36 C27        11.6999    5.5259   -3.3268 C.3       1 <0>        -0.1462
     37 C28        12.0761    5.8588   -1.8815 C.3       1 <0>        -0.0070
     38 H2         -0.9591    1.9053    0.0259 H         1 <0>         0.1368
     39 H3          1.1563    3.1654    0.0076 H         1 <0>         0.1363
     40 H4          3.3051    1.9634   -0.0196 H         1 <0>         0.1372
     41 H5          1.2231   -1.7588   -0.0176 H         1 <0>         0.1418
     42 H6         -0.9258   -0.5567    0.0082 H         1 <0>         0.1397
     43 H7          5.6875    0.5742    1.5529 H         1 <0>         0.1184
     44 H8          4.5582    0.4915    2.9321 H         1 <0>         0.1003
     45 H9          2.5200   -2.7999    0.7726 H         1 <0>         0.1481
     46 H10         1.8407   -4.8307    1.9911 H         1 <0>         0.1370
     47 H11         2.9215   -5.4074    4.1235 H         1 <0>         0.1380
     48 H12         4.6922   -3.9638    5.0483 H         1 <0>         0.1412
     49 H13         7.9014    1.0123    2.2719 H         1 <0>         0.4034
     50 H14         8.0224    2.5608    4.6307 H         1 <0>         0.0891
     51 H15         9.3606    1.3875    4.6607 H         1 <0>         0.0891
     52 H16        11.1435    1.4939    3.0132 H         1 <0>         0.1395
     53 H17        12.4331    2.9256    1.4801 H         1 <0>         0.1345
     54 H18         9.2340    5.7455    1.4224 H         1 <0>         0.1348
     55 H19         7.9410    4.3099    2.9489 H         1 <0>         0.1393
     56 H20        11.4322    6.3431    0.5832 H         1 <0>         0.1378
     57 H21        12.7676    5.1665    0.6077 H         1 <0>         0.1361
     58 H22        12.9492    3.5180   -1.1102 H         1 <0>         0.1278
     59 H23        11.4027    2.8813   -0.5027 H         1 <0>         0.1302
     60 H24        11.8292    2.1212   -2.8249 H         1 <0>         0.1115
     61 H25        10.3977    3.1778   -2.7510 H         1 <0>         0.0873
     62 H26        13.2185    4.0143   -3.5689 H         1 <0>         0.0817
     63 H27        11.8178    3.8305   -4.6541 H         1 <0>         0.0942
     64 H28        12.2042    6.2168   -4.0025 H         1 <0>         0.1125
     65 H29        10.6209    5.6157   -3.4520 H         1 <0>         0.0874
     66 H30        11.7687    6.8791   -1.6523 H         1 <0>         0.1302
     67 H31        13.1553    5.7689   -1.7574 H         1 <0>         0.1288
     68 H32        10.4037    4.9755   -1.1200 H         1 <0>         0.4218
@<TRIPOS>BOND
     1    1    6 ar
     2    1    2 ar
     3    1   38 1
     4    2    3 ar
     5    2   39 1
     6    3    4 ar
     7    3   40 1
     8    4    5 ar
     9    4    7 1
    10    5    6 ar
    11    5   41 1
    12    6   42 1
    13    7    8 2
    14    7    9 2
    15    7   10 1
    16   10   16 1
    17   10   11 1
    18   11   12 1
    19   11   43 1
    20   11   44 1
    21   12   13 1
    22   12   14 1
    23   12   21 1
    24   14   15 1
    25   15   20 ar
    26   15   16 ar
    27   16   17 ar
    28   17   18 ar
    29   17   45 1
    30   18   19 ar
    31   18   46 1
    32   19   20 ar
    33   19   47 1
    34   20   48 1
    35   21   22 2
    36   21   23 am
    37   23   24 1
    38   23   49 1
    39   24   25 1
    40   24   50 1
    41   24   51 1
    42   25   30 ar
    43   25   26 ar
    44   26   27 ar
    45   26   52 1
    46   27   28 ar
    47   27   53 1
    48   28   29 ar
    49   28   31 1
    50   29   30 ar
    51   29   54 1
    52   30   55 1
    53   31   32 1
    54   31   56 1
    55   31   57 1
    56   32   37 1
    57   32   33 1
    58   32   68 1
    59   33   34 1
    60   33   58 1
    61   33   59 1
    62   34   35 1
    63   34   60 1
    64   34   61 1
    65   35   36 1
    66   35   62 1
    67   35   63 1
    68   36   37 1
    69   36   64 1
    70   36   65 1
    71   37   66 1
    72   37   67 1
@<TRIPOS>MOLECULE
ZINC63908242
   60    64     0     0     0
SMALL
USER_CHARGES

@<TRIPOS>ATOM
      1 C1          1.7829   -2.7682   -1.1653 C.3       1 <0>        -0.1580
      2 C2          1.8983   -1.3136   -0.7053 C.3       1 <0>         0.1117
      3 H1          2.8360   -0.8827   -1.0562 H         1 <0>         0.1682
      4 C3          0.7281   -0.5084   -1.2256 C.2       1 <0>         0.1696
      5 C4          0.0679   -0.0326   -0.0959 C.ar      1 <0>        -0.1720
      6 C5         -1.0827    0.7699    0.0691 C.ar      1 <0>         0.0077
      7 C6         -1.5094    1.0858    1.3183 C.ar      1 <0>        -0.1689
      8 C7         -0.8370    0.6358    2.4568 C.ar      1 <0>         0.0460
      9 C8          0.2734   -0.1374    2.3731 C.ar      1 <0>        -0.2103
     10 C9          0.7800   -0.5092    1.1011 C.ar      1 <0>         0.3123
     11 N1          1.8246   -1.2392    0.7571 N.pl3     1 <0>        -0.6097
     12 C10         0.3787   -0.2855   -2.5749 C.2       1 <0>         0.0323
     13 C11         1.1962   -0.7308   -3.6057 C.2       1 <0>        -0.2464
     14 S1          0.3578   -0.2308   -4.9763 S.3       1 <0>         0.3653
     15 C12        -1.0307    0.5422   -4.1672 C.2       1 <0>         0.2882
     16 N2         -0.7522    0.3556   -2.8948 N.2       1 <0>        -0.4937
     17 N3         -2.1265    1.1739   -4.7342 N.am      1 <0>        -0.6059
     18 C13        -2.2359    1.2594   -6.0748 C.2       1 <0>         0.5729
     19 O1         -1.3737    0.7826   -6.7866 O.2       1 <0>        -0.4851
     20 C14        -3.4043    1.9329   -6.6794 C.ar      1 <0>        -0.1645
     21 C15        -4.3936    2.4867   -5.8645 C.ar      1 <0>        -0.0294
     22 C16        -5.4812    3.1143   -6.4352 C.ar      1 <0>        -0.1379
     23 C17        -5.5932    3.1957   -7.8122 C.ar      1 <0>         0.0213
     24 C18        -4.6167    2.6486   -8.6253 C.ar      1 <0>        -0.6845
     25 C19        -3.5208    2.0232   -8.0674 C.ar      1 <0>         0.0505
     26 S2         -4.7694    2.7574  -10.3773 S.o2      1 <0>         2.6869
     27 O2         -4.0012    1.6916  -10.9189 O.2       1 <0>        -0.9419
     28 O3         -6.1539    2.9165  -10.6552 O.2       1 <0>        -0.9414
     29 N4         -4.0279    4.1616  -10.8472 N.pl3     1 <0>        -0.9956
     30 C20        -4.7795    5.4237  -10.9219 C.3       1 <0>         0.1224
     31 C21        -4.0104    6.4951  -10.1417 C.3       1 <0>         0.0397
     32 N5         -2.6303    6.5635  -10.6405 N.3       1 <0>        -0.5396
     33 C22        -1.9171    5.3002  -10.4097 C.3       1 <0>         0.0401
     34 C23        -2.5990    4.1810  -11.1950 C.3       1 <0>         0.1222
     35 C24        -1.9086    7.6930  -10.0393 C.3       1 <0>         0.0248
     36 H2          0.8481   -3.1922   -0.7985 H         1 <0>         0.0834
     37 H3          1.7967   -2.8071   -2.2545 H         1 <0>         0.0993
     38 H4          2.6216   -3.3418   -0.7706 H         1 <0>         0.0985
     39 H5         -1.6209    1.1304   -0.7950 H         1 <0>         0.1591
     40 H6         -2.3900    1.7002    1.4348 H         1 <0>         0.1509
     41 H7         -1.2119    0.9120    3.4313 H         1 <0>         0.1569
     42 H8          0.7711   -0.4692    3.2723 H         1 <0>         0.1567
     43 H9          2.1337   -1.2632   -3.5433 H         1 <0>         0.2197
     44 H10        -2.8145    1.5544   -4.1662 H         1 <0>         0.4317
     45 H11        -4.3077    2.4235   -4.7898 H         1 <0>         0.1362
     46 H12        -6.2474    3.5428   -5.8061 H         1 <0>         0.1496
     47 H13        -6.4468    3.6882   -8.2539 H         1 <0>         0.1533
     48 H14        -2.7570    1.6004   -8.7032 H         1 <0>         0.1587
     49 H15        -4.8787    5.7296  -11.9634 H         1 <0>         0.0906
     50 H16        -5.7673    5.2883  -10.4814 H         1 <0>         0.0954
     51 H17        -4.4947    7.4621  -10.2779 H         1 <0>         0.0924
     52 H18        -4.0020    6.2381   -9.0825 H         1 <0>         0.0372
     53 H19        -0.8833    5.4005  -10.7402 H         1 <0>         0.0918
     54 H20        -1.9379    5.0597   -9.3467 H         1 <0>         0.0357
     55 H21        -2.1459    3.2243  -10.9349 H         1 <0>         0.0949
     56 H22        -2.4846    4.3651  -12.2632 H         1 <0>         0.0903
     57 H23        -1.8833    7.5728   -8.9562 H         1 <0>         0.0243
     58 H24        -0.8898    7.7202  -10.4258 H         1 <0>         0.0720
     59 H25        -2.4173    8.6239  -10.2898 H         1 <0>         0.0733
     60 H26         2.4446   -1.6601    1.3730 H         1 <0>         0.4507
@<TRIPOS>BOND
     1    1    2 1
     2    1   36 1
     3    1   37 1
     4    1   38 1
     5    2    3 1
     6    2   11 1
     7    2    4 1
     8    4    5 2
     9    4   12 1
    10    5   10 ar
    11    5    6 ar
    12    6    7 ar
    13    6   39 1
    14    7    8 ar
    15    7   40 1
    16    8    9 ar
    17    8   41 1
    18    9   10 ar
    19    9   42 1
    20   10   11 2
    21   11   60 1
    22   12   16 1
    23   12   13 2
    24   13   14 1
    25   13   43 1
    26   14   15 1
    27   15   16 2
    28   15   17 1
    29   17   18 am
    30   17   44 1
    31   18   19 2
    32   18   20 1
    33   20   25 ar
    34   20   21 ar
    35   21   22 ar
    36   21   45 1
    37   22   23 ar
    38   22   46 1
    39   23   24 ar
    40   23   47 1
    41   24   25 ar
    42   24   26 1
    43   25   48 1
    44   26   27 2
    45   26   28 2
    46   26   29 1
    47   29   34 1
    48   29   30 1
    49   30   31 1
    50   30   49 1
    51   30   50 1
    52   31   32 1
    53   31   51 1
    54   31   52 1
    55   32   33 1
    56   32   35 1
    57   33   34 1
    58   33   53 1
    59   33   54 1
    60   34   55 1
    61   34   56 1
    62   35   57 1
    63   35   58 1
    64   35   59 1
@<TRIPOS>MOLECULE
ZINC39630764
   76    78     0     0     0
SMALL
USER_CHARGES

@<TRIPOS>ATOM
      1 C1          4.2840   -0.7217   -4.5527 C.3       1 <0>        -0.1462
      2 C2          3.8234   -0.7382   -3.0938 C.3       1 <0>        -0.0730
      3 C3          4.9836   -1.1764   -2.1977 C.3       1 <0>        -0.0972
      4 C4          4.5230   -1.1928   -0.7387 C.3       1 <0>        -0.1292
      5 C5          4.0662    0.2097   -0.3323 C.3       1 <0>        -0.1244
      6 C6          2.9060    0.6479   -1.2284 C.3       1 <0>        -0.1205
      7 C7          3.3666    0.6643   -2.6874 C.3       1 <0>        -0.1198
      8 C8          2.6771   -1.7042   -2.9398 C.2       1 <0>         0.5572
      9 O1          2.8394   -2.7477   -2.3433 O.2       1 <0>        -0.5183
     10 N1          1.4716   -1.4086   -3.4649 N.am      1 <0>        -0.6223
     11 C9          1.1082   -0.2442   -4.3063 C.3       1 <0>         0.1039
     12 C10         0.1411   -0.8157   -5.3671 C.3       1 <0>        -0.1148
     13 H1          0.6839   -1.0713   -6.2771 H         1 <0>         0.1101
     14 C11        -0.4468   -2.0813   -4.7208 C.3       1 <0>        -0.0712
     15 C12         0.2110   -2.1785   -3.3366 C.3       1 <0>         0.1046
     16 C13        -1.9601   -1.9486   -4.5797 C.3       1 <0>        -0.1433
     17 C14        -2.5283   -3.2418   -3.9885 C.3       1 <0>        -0.0094
     18 N2         -2.1959   -4.3707   -4.8659 N.4       1 <0>        -0.5040
     19 C15        -0.7399   -4.5490   -4.9223 C.3       1 <0>        -0.0130
     20 C16        -0.0961   -3.3111   -5.5530 C.3       1 <0>        -0.1324
     21 C17        -0.9513    0.1772   -5.6705 C.2       1 <0>         0.5242
     22 O2         -1.3803    0.8942   -4.7914 O.2       1 <0>        -0.5098
     23 N3         -1.4515    0.2684   -6.9186 N.am      1 <0>        -0.7315
     24 C18        -2.5134    1.2337   -7.2135 C.3       1 <0>         0.1305
     25 C19        -2.8975    1.1337   -8.6911 C.3       1 <0>        -0.0990
     26 C20        -1.6746    1.4403   -9.5579 C.3       1 <0>        -0.1660
     27 C21        -3.3957   -0.2809   -8.9940 C.3       1 <0>        -0.1733
     28 C22        -4.0065    2.1418   -8.9990 C.3       1 <0>        -0.0051
     29 N4         -4.4709    1.9524  -10.3798 N.4       1 <0>        -0.3872
     30 C23        -5.7343    1.2029  -10.3731 C.3       1 <0>        -0.0565
     31 C24        -4.6821    3.2627  -11.0095 C.3       1 <0>        -0.0508
     32 H2          5.0412    0.0510   -4.6860 H         1 <0>         0.0770
     33 H3          4.7063   -1.6927   -4.8114 H         1 <0>         0.0659
     34 H4          3.4326   -0.5117   -5.2002 H         1 <0>         0.0561
     35 H5          5.3090   -2.1755   -2.4872 H         1 <0>         0.0723
     36 H6          5.8127   -0.4776   -2.3091 H         1 <0>         0.0753
     37 H7          3.6938   -1.8916   -0.6273 H         1 <0>         0.0749
     38 H8          5.3495   -1.5050   -0.1003 H         1 <0>         0.0675
     39 H9          3.7380    0.1979    0.7071 H         1 <0>         0.0648
     40 H10         4.8953    0.9084   -0.4437 H         1 <0>         0.0660
     41 H11         2.0769   -0.0509   -1.1170 H         1 <0>         0.0548
     42 H12         2.5806    1.6470   -0.9389 H         1 <0>         0.0686
     43 H13         4.1958    1.3630   -2.7988 H         1 <0>         0.0809
     44 H14         2.5401    0.9765   -3.3258 H         1 <0>         0.0694
     45 H15         0.6082    0.5166   -3.7068 H         1 <0>         0.0987
     46 H16         1.9954    0.1704   -4.7849 H         1 <0>         0.1033
     47 H17         0.4238   -3.2186   -3.0896 H         1 <0>         0.0905
     48 H18        -0.4329   -1.7308   -2.5795 H         1 <0>         0.0836
     49 H19        -2.1920   -1.1136   -3.9186 H         1 <0>         0.1276
     50 H20        -2.4028   -1.7712   -5.5599 H         1 <0>         0.0897
     51 H21        -2.0974   -3.4099   -3.0016 H         1 <0>         0.1358
     52 H22        -3.6114   -3.1562   -3.9017 H         1 <0>         0.1391
     53 H23        -2.6227   -5.2113   -4.5065 H         1 <0>         0.4368
     54 H24        -0.3515   -4.6859   -3.9130 H         1 <0>         0.1367
     55 H25        -0.5047   -5.4270   -5.5238 H         1 <0>         0.1417
     56 H26        -0.4718   -3.1828   -6.5681 H         1 <0>         0.0923
     57 H27         0.9864   -3.4368   -5.5783 H         1 <0>         0.1196
     58 H28        -1.1084   -0.3050   -7.6217 H         1 <0>         0.4023
     59 H29        -3.3846    1.0153   -6.5960 H         1 <0>         0.0822
     60 H30        -2.1585    2.2415   -6.9977 H         1 <0>         0.0860
     61 H31        -0.8845    0.7221   -9.3385 H         1 <0>         0.0816
     62 H32        -1.9483    1.3690  -10.6106 H         1 <0>         0.0608
     63 H33        -1.3197    2.4480   -9.3421 H         1 <0>         0.0819
     64 H34        -4.4152   -0.3938   -8.6253 H         1 <0>         0.0752
     65 H35        -3.3779   -0.4496  -10.0707 H         1 <0>         0.0686
     66 H36        -2.7488   -1.0070   -8.5017 H         1 <0>         0.0799
     67 H37        -4.8384    1.9881   -8.3117 H         1 <0>         0.1370
     68 H38        -3.6202    3.1542   -8.8813 H         1 <0>         0.1391
     69 H39        -5.6178    0.2996   -9.7743 H         1 <0>         0.1227
     70 H40        -6.5223    1.8230   -9.9456 H         1 <0>         0.1271
     71 H41        -6.0004    0.9301  -11.3943 H         1 <0>         0.1273
     72 H42        -3.7446    3.8187  -11.0145 H         1 <0>         0.1256
     73 H43        -5.0266    3.1221  -12.0340 H         1 <0>         0.1279
     74 H44        -5.4317    3.8194  -10.4472 H         1 <0>         0.1267
     75 H45        -3.7769    1.4370  -10.9003 H         1 <0>         0.4227
     76 H46        -2.5473   -4.1885   -5.7940 H         1 <0>         0.4242
@<TRIPOS>BOND
     1    1    2 1
     2    1   32 1
     3    1   33 1
     4    1   34 1
     5    2    7 1
     6    2    3 1
     7    2    8 1
     8    3    4 1
     9    3   35 1
    10    3   36 1
    11    4    5 1
    12    4   37 1
    13    4   38 1
    14    5    6 1
    15    5   39 1
    16    5   40 1
    17    6    7 1
    18    6   41 1
    19    6   42 1
    20    7   43 1
    21    7   44 1
    22    8    9 2
    23    8   10 am
    24   10   15 1
    25   10   11 1
    26   11   12 1
    27   11   45 1
    28   11   46 1
    29   12   13 1
    30   12   14 1
    31   12   21 1
    32   14   20 1
    33   14   15 1
    34   14   16 1
    35   15   47 1
    36   15   48 1
    37   16   17 1
    38   16   49 1
    39   16   50 1
    40   17   18 1
    41   17   51 1
    42   17   52 1
    43   18   19 1
    44   18   53 1
    45   18   76 1
    46   19   20 1
    47   19   54 1
    48   19   55 1
    49   20   56 1
    50   20   57 1
    51   21   22 2
    52   21   23 am
    53   23   24 1
    54   23   58 1
    55   24   25 1
    56   24   59 1
    57   24   60 1
    58   25   26 1
    59   25   27 1
    60   25   28 1
    61   26   61 1
    62   26   62 1
    63   26   63 1
    64   27   64 1
    65   27   65 1
    66   27   66 1
    67   28   29 1
    68   28   67 1
    69   28   68 1
    70   29   30 1
    71   29   31 1
    72   29   75 1
    73   30   69 1
    74   30   70 1
    75   30   71 1
    76   31   72 1
    77   31   73 1
    78   31   74 1
@<TRIPOS>MOLECULE
ZINC39664617
   74    77     0     0     0
SMALL
USER_CHARGES

@<TRIPOS>ATOM
      1 C1          0.3541   -3.3035    2.1206 C.3       1 <0>        -0.1501
      2 C2          1.2120   -4.3873    1.4647 C.3       1 <0>        -0.0965
      3 C3          1.6023   -3.9477    0.0771 C.ar      1 <0>        -0.0383
      4 C4          0.7884   -4.2576   -0.9981 C.ar      1 <0>        -0.1172
      5 C5          1.1399   -3.8582   -2.2709 C.ar      1 <0>        -0.0482
      6 C6          2.3195   -3.1398   -2.4727 C.ar      1 <0>        -0.1507
      7 C7          3.1360   -2.8304   -1.3838 C.ar      1 <0>        -0.1022
      8 C8          2.7700   -3.2310   -0.1154 C.ar      1 <0>        -0.1277
      9 C9          2.7026   -2.7089   -3.8341 C.2       1 <0>         0.5905
     10 O1          1.8580   -2.6203   -4.7038 O.2       1 <0>        -0.5101
     11 N1          3.9883   -2.4144   -4.1109 N.am      1 <0>        -0.6204
     12 C10         5.1669   -2.5725   -3.2267 C.3       1 <0>         0.0899
     13 C11         6.2903   -3.0769   -4.1600 C.3       1 <0>        -0.1173
     14 H1          6.3502   -4.1648   -4.1283 H         1 <0>         0.1378
     15 C12         5.8761   -2.6041   -5.5636 C.3       1 <0>        -0.0760
     16 C13         4.5438   -1.8651   -5.3710 C.3       1 <0>         0.1017
     17 C14         6.9283   -1.6585   -6.1346 C.3       1 <0>        -0.1493
     18 C15         6.5230   -1.2480   -7.5531 C.3       1 <0>        -0.0079
     19 N2          6.4028   -2.4442   -8.3953 N.4       1 <0>        -0.5052
     20 C16         5.3251   -3.3044   -7.8921 C.3       1 <0>        -0.0125
     21 C17         5.6798   -3.8020   -6.4880 C.3       1 <0>        -0.1344
     22 C18         7.6117   -2.4680   -3.7673 C.2       1 <0>         0.5178
     23 O2          8.6040   -3.1623   -3.7027 O.2       1 <0>        -0.5085
     24 N3          7.6907   -1.1519   -3.4879 N.am      1 <0>        -0.7415
     25 C19         8.9554   -0.5762   -3.0239 C.3       1 <0>         0.1657
     26 H2          9.7784   -1.2337   -3.3041 H         1 <0>         0.1320
     27 C20         8.9190   -0.4252   -1.5018 C.3       1 <0>        -0.0252
     28 N4          8.6788   -1.7367   -0.8852 N.4       1 <0>        -0.3859
     29 C21         9.8579   -2.5915   -1.0773 C.3       1 <0>        -0.0585
     30 C22         8.4284   -1.5636    0.5520 C.3       1 <0>        -0.0514
     31 C23         9.1545    0.7761   -3.6583 C.ar      1 <0>        -0.1242
     32 C24         8.0830    1.6382   -3.7987 C.ar      1 <0>        -0.1139
     33 C25         8.2656    2.8787   -4.3806 C.ar      1 <0>        -0.1094
     34 C26         9.5198    3.2574   -4.8217 C.ar      1 <0>        -0.0930
     35 C27        10.5915    2.3957   -4.6804 C.ar      1 <0>        -0.1061
     36 C28        10.4097    1.1569   -4.0946 C.ar      1 <0>        -0.0956
     37 H3          0.9234   -2.3759    2.1801 H         1 <0>         0.0556
     38 H4         -0.5441   -3.1410    1.5249 H         1 <0>         0.0599
     39 H5          0.0718   -3.6215    3.1243 H         1 <0>         0.0674
     40 H6          2.1102   -4.5499    2.0604 H         1 <0>         0.0772
     41 H7          0.6426   -5.3149    1.4052 H         1 <0>         0.0815
     42 H8         -0.1238   -4.8139   -0.8405 H         1 <0>         0.1378
     43 H9          0.5039   -4.1011   -3.1093 H         1 <0>         0.1384
     44 H10         4.0500   -2.2749   -1.5333 H         1 <0>         0.1256
     45 H11         3.3987   -2.9884    0.7286 H         1 <0>         0.1288
     46 H12         5.4416   -1.6148   -2.7846 H         1 <0>         0.0755
     47 H13         4.9618   -3.3068   -2.4477 H         1 <0>         0.1138
     48 H14         3.8719   -2.0704   -6.2044 H         1 <0>         0.0992
     49 H15         4.7162   -0.7930   -5.2754 H         1 <0>         0.0847
     50 H16         7.0000   -0.7712   -5.5055 H         1 <0>         0.1177
     51 H17         7.8939   -2.1634   -6.1638 H         1 <0>         0.1004
     52 H18         5.5652   -0.7288   -7.5211 H         1 <0>         0.1349
     53 H19         7.2813   -0.5852   -7.9699 H         1 <0>         0.1407
     54 H20         6.1955   -2.1671   -9.3431 H         1 <0>         0.4385
     55 H21         4.3957   -2.7363   -7.8520 H         1 <0>         0.1357
     56 H22         5.2003   -4.1576   -8.5589 H         1 <0>         0.1443
     57 H23         6.6005   -4.3839   -6.5299 H         1 <0>         0.1007
     58 H24         4.8711   -4.4262   -6.1080 H         1 <0>         0.1207
     59 H25         6.9102   -0.5858   -3.5941 H         1 <0>         0.4133
     60 H26         9.8726   -0.0289   -1.1530 H         1 <0>         0.1506
     61 H27         8.1176    0.2593   -1.2237 H         1 <0>         0.1380
     62 H28         9.6412   -3.5964   -0.7149 H         1 <0>         0.1268
     63 H29        10.1073   -2.6335   -2.1376 H         1 <0>         0.1320
     64 H30        10.7002   -2.1788   -0.5221 H         1 <0>         0.1272
     65 H31         7.5535   -0.9294    0.6946 H         1 <0>         0.1245
     66 H32         8.2502   -2.5368    1.0095 H         1 <0>         0.1288
     67 H33         9.2958   -1.0963    1.0182 H         1 <0>         0.1291
     68 H34         7.1032    1.3423   -3.4541 H         1 <0>         0.1177
     69 H35         7.4284    3.5519   -4.4910 H         1 <0>         0.1328
     70 H36         9.6624    4.2263   -5.2770 H         1 <0>         0.1347
     71 H37        11.5713    2.6914   -5.0253 H         1 <0>         0.1355
     72 H38        11.2477    0.4852   -3.9808 H         1 <0>         0.1293
     73 H39         7.2735   -2.9539   -8.3794 H         1 <0>         0.4297
     74 H40         7.8759   -2.1693   -1.3167 H         1 <0>         0.4130
@<TRIPOS>BOND
     1    1    2 1
     2    1   37 1
     3    1   38 1
     4    1   39 1
     5    2    3 1
     6    2   40 1
     7    2   41 1
     8    3    8 ar
     9    3    4 ar
    10    4    5 ar
    11    4   42 1
    12    5    6 ar
    13    5   43 1
    14    6    7 ar
    15    6    9 1
    16    7    8 ar
    17    7   44 1
    18    8   45 1
    19    9   10 2
    20    9   11 am
    21   11   16 1
    22   11   12 1
    23   12   13 1
    24   12   46 1
    25   12   47 1
    26   13   14 1
    27   13   15 1
    28   13   22 1
    29   15   21 1
    30   15   16 1
    31   15   17 1
    32   16   48 1
    33   16   49 1
    34   17   18 1
    35   17   50 1
    36   17   51 1
    37   18   19 1
    38   18   52 1
    39   18   53 1
    40   19   20 1
    41   19   54 1
    42   19   73 1
    43   20   21 1
    44   20   55 1
    45   20   56 1
    46   21   57 1
    47   21   58 1
    48   22   23 2
    49   22   24 am
    50   24   25 1
    51   24   59 1
    52   25   26 1
    53   25   27 1
    54   25   31 1
    55   27   28 1
    56   27   60 1
    57   27   61 1
    58   28   29 1
    59   28   30 1
    60   28   74 1
    61   29   62 1
    62   29   63 1
    63   29   64 1
    64   30   65 1
    65   30   66 1
    66   30   67 1
    67   31   36 ar
    68   31   32 ar
    69   32   33 ar
    70   32   68 1
    71   33   34 ar
    72   33   69 1
    73   34   35 ar
    74   34   70 1
    75   35   36 ar
    76   35   71 1
    77   36   72 1
@<TRIPOS>MOLECULE
ZINC39679078
   71    74     0     0     0
SMALL
USER_CHARGES

@<TRIPOS>ATOM
      1 C1          1.4712   -2.6887   -5.7274 C.3       1 <0>        -0.0485
      2 N1          1.0789   -3.0120   -4.3491 N.4       1 <0>        -0.3878
      3 C2          1.1607   -1.8021   -3.5201 C.3       1 <0>        -0.0542
      4 C3         -0.2992   -3.5205   -4.3387 C.3       1 <0>        -0.0100
      5 C4         -0.6649   -3.9737   -2.9239 C.3       1 <0>        -0.1492
      6 C5         -2.1003   -4.5033   -2.9130 C.3       1 <0>        -0.1293
      7 C6         -2.4660   -4.9566   -1.4982 C.3       1 <0>         0.1155
      8 N2         -3.8404   -5.4636   -1.4878 N.am      1 <0>        -0.7335
      9 C7         -4.3814   -5.9208   -0.3411 C.2       1 <0>         0.5233
     10 O1         -3.7303   -5.9124    0.6821 O.2       1 <0>        -0.5126
     11 C8         -5.7952   -6.4424   -0.3304 C.3       1 <0>        -0.1138
     12 H1         -6.3886   -5.9441   -1.0970 H         1 <0>         0.1132
     13 C9         -6.4335   -6.2379    1.0618 C.3       1 <0>         0.1081
     14 N3         -7.2628   -7.4474    1.2748 N.am      1 <0>        -0.6198
     15 C10        -6.4480   -8.5553    0.7210 C.3       1 <0>         0.1094
     16 C11        -5.8060   -7.9645   -0.5501 C.3       1 <0>        -0.0734
     17 C12        -6.6433   -8.3154   -1.7762 C.3       1 <0>        -0.1333
     18 C13        -6.5924   -9.8284   -2.0071 C.3       1 <0>        -0.0128
     19 N4         -5.1998  -10.2484   -2.2041 N.4       1 <0>        -0.5040
     20 C14        -4.4220   -9.9917   -0.9860 C.3       1 <0>        -0.0089
     21 C15        -4.3814   -8.4857   -0.7118 C.3       1 <0>        -0.1442
     22 C16        -8.4823   -7.5232    1.8436 C.2       1 <0>         0.6354
     23 O2         -9.0394   -8.6005    1.9476 O.2       1 <0>        -0.5058
     24 C17        -9.1372   -6.3093    2.3367 C.2       1 <0>        -0.0980
     25 C18       -10.3740   -6.2457    2.9407 C.2       1 <0>        -0.0893
     26 C19       -10.6040   -4.9011    3.2486 C.2       1 <0>        -0.1991
     27 C20        -9.5111   -4.1997    2.8261 C.2       1 <0>         0.0773
     28 O3         -8.6318   -5.0587    2.2838 O.3       1 <0>        -0.1598
     29 C21        -9.3243   -2.7402    2.9499 C.ar      1 <0>        -0.0471
     30 C22       -10.3133   -1.9551    3.5467 C.ar      1 <0>        -0.0557
     31 C23       -10.1333   -0.5929    3.6601 C.ar      1 <0>        -0.1463
     32 C24        -8.9734   -0.0023    3.1832 C.ar      1 <0>         0.1205
     33 C25        -7.9887   -0.7765    2.5895 C.ar      1 <0>        -0.1537
     34 C26        -8.1554   -2.1404    2.4759 C.ar      1 <0>        -0.0683
     35 F1         -8.8023    1.3330    3.2969 F         1 <0>        -0.1293
     36 H2          2.4938   -2.3115   -5.7351 H         1 <0>         0.1276
     37 H3          1.4105   -3.5865   -6.3425 H         1 <0>         0.1236
     38 H4          0.8003   -1.9283   -6.1272 H         1 <0>         0.1233
     39 H5          2.1833   -1.4248   -3.5278 H         1 <0>         0.1276
     40 H6          0.4899   -1.0417   -3.9199 H         1 <0>         0.1238
     41 H7          0.8697   -2.0420   -2.4974 H         1 <0>         0.1242
     42 H8         -0.9804   -2.7304   -4.6545 H         1 <0>         0.1311
     43 H9         -0.3801   -4.3650   -5.0230 H         1 <0>         0.1303
     44 H10         0.0163   -4.7639   -2.6080 H         1 <0>         0.0916
     45 H11        -0.5840   -3.1292   -2.2395 H         1 <0>         0.0941
     46 H12        -2.7815   -3.7132   -3.2289 H         1 <0>         0.0840
     47 H13        -2.1812   -5.3478   -3.5974 H         1 <0>         0.0796
     48 H14        -1.7848   -5.7467   -1.1823 H         1 <0>         0.0744
     49 H15        -2.3851   -4.1120   -0.8138 H         1 <0>         0.0768
     50 H16        -4.3611   -5.4704   -2.3062 H         1 <0>         0.4023
     51 H17        -5.6610   -6.1671    1.8274 H         1 <0>         0.1013
     52 H18        -7.0572   -5.3439    1.0662 H         1 <0>         0.1036
     53 H19        -5.6788   -8.8546    1.4329 H         1 <0>         0.0889
     54 H20        -7.0828   -9.4039    0.4662 H         1 <0>         0.0940
     55 H21        -7.6758   -8.0069   -1.6123 H         1 <0>         0.1200
     56 H22        -6.2433   -7.8004   -2.6496 H         1 <0>         0.0950
     57 H23        -7.0075  -10.3422   -1.1400 H         1 <0>         0.1366
     58 H24        -7.1764  -10.0805   -2.8922 H         1 <0>         0.1423
     59 H25        -5.1741  -11.2345   -2.4163 H         1 <0>         0.4367
     60 H26        -4.8883  -10.5018   -0.1432 H         1 <0>         0.1360
     61 H27        -3.4062  -10.3642   -1.1186 H         1 <0>         0.1394
     62 H28        -3.9002   -7.9766   -1.5469 H         1 <0>         0.0934
     63 H29        -3.8190   -8.2974    0.2028 H         1 <0>         0.1254
     64 H30       -11.0379   -7.0743    3.1380 H         1 <0>         0.1686
     65 H31       -11.4809   -4.4941    3.7300 H         1 <0>         0.1664
     66 H32       -11.2175   -2.4141    3.9183 H         1 <0>         0.1448
     67 H33       -10.8975    0.0153    4.1211 H         1 <0>         0.1498
     68 H34        -7.0873   -0.3110    2.2191 H         1 <0>         0.1421
     69 H35        -7.3854   -2.7433    2.0176 H         1 <0>         0.1340
     70 H36        -4.7994   -9.7313   -2.9724 H         1 <0>         0.4252
     71 H37         1.6999   -3.7159   -3.9790 H         1 <0>         0.4274
@<TRIPOS>BOND
     1    1    2 1
     2    1   36 1
     3    1   37 1
     4    1   38 1
     5    2    3 1
     6    2    4 1
     7    2   71 1
     8    3   39 1
     9    3   40 1
    10    3   41 1
    11    4    5 1
    12    4   42 1
    13    4   43 1
    14    5    6 1
    15    5   44 1
    16    5   45 1
    17    6    7 1
    18    6   46 1
    19    6   47 1
    20    7    8 1
    21    7   48 1
    22    7   49 1
    23    8    9 am
    24    8   50 1
    25    9   10 2
    26    9   11 1
    27   11   12 1
    28   11   16 1
    29   11   13 1
    30   13   14 1
    31   13   51 1
    32   13   52 1
    33   14   15 1
    34   14   22 am
    35   15   16 1
    36   15   53 1
    37   15   54 1
    38   16   21 1
    39   16   17 1
    40   17   18 1
    41   17   55 1
    42   17   56 1
    43   18   19 1
    44   18   57 1
    45   18   58 1
    46   19   20 1
    47   19   59 1
    48   19   70 1
    49   20   21 1
    50   20   60 1
    51   20   61 1
    52   21   62 1
    53   21   63 1
    54   22   23 2
    55   22   24 1
    56   24   28 1
    57   24   25 2
    58   25   26 1
    59   25   64 1
    60   26   27 2
    61   26   65 1
    62   27   28 1
    63   27   29 1
    64   29   34 ar
    65   29   30 ar
    66   30   31 ar
    67   30   66 1
    68   31   32 ar
    69   31   67 1
    70   32   33 ar
    71   32   35 1
    72   33   34 ar
    73   33   68 1
    74   34   69 1
@<TRIPOS>MOLECULE
ZINC63494561
   56    61     0     0     0
SMALL
USER_CHARGES

@<TRIPOS>ATOM
      1 C1         -0.0163    1.3482    0.0095 C.ar      1 <0>        -0.1403
      2 C2          1.1658    2.1014    0.0022 C.ar      1 <0>         0.0556
      3 C3          2.3912    1.5352   -0.0125 C.ar      1 <0>        -0.2073
      4 C4          2.5288    0.1198   -0.0218 C.ar      1 <0>         0.3287
      5 N1          3.5868   -0.6543   -0.0369 N.pl3     1 <0>        -0.5814
      6 C5          3.1432   -2.0528   -0.0408 C.3       1 <0>         0.0615
      7 C6          1.6315   -2.0084   -0.0255 C.2       1 <0>         0.0504
      8 C7          1.2951   -0.6984   -0.0144 C.ar      1 <0>        -0.1559
      9 C8          0.0021   -0.0041    0.0020 C.ar      1 <0>        -0.0242
     10 C9          0.6905   -3.1856   -0.0239 C.3       1 <0>        -0.0861
     11 C10         0.4565   -3.6534   -1.4617 C.3       1 <0>         0.0654
     12 N2         -0.4608   -4.8008   -1.4602 N.3       1 <0>        -0.7151
     13 C11        -0.7092   -5.2781   -2.8271 C.3       1 <0>         0.5730
     14 H1          0.2366   -5.3295   -3.3665 H         1 <0>         0.1253
     15 N3         -1.6014   -4.3422   -3.5086 N.pl3     1 <0>        -0.6725
     16 C12        -2.9013   -4.5301   -3.6368 C.ar      1 <0>         0.3215
     17 C13        -3.7393   -3.5364   -4.1885 C.ar      1 <0>        -0.2096
     18 C14        -5.0841   -3.7353   -4.2217 C.ar      1 <0>         0.0258
     19 C15        -5.6707   -4.9008   -3.7349 C.ar      1 <0>        -0.1723
     20 C16        -4.9169   -5.9166   -3.2234 C.ar      1 <0>         0.0082
     21 C17        -3.5260   -5.7876   -3.1930 C.ar      1 <0>        -0.2327
     22 C18        -2.6620   -6.8194   -2.7885 C.2       1 <0>         0.5714
     23 N4         -1.3057   -6.6164   -2.7700 N.pl3     1 <0>        -0.4446
     24 N5         -0.6619   -7.8140   -2.7052 N.3       1 <0>        -0.4189
     25 C19        -1.7112   -8.8472   -2.5664 C.3       1 <0>         0.3309
     26 H2         -1.5126   -9.4802   -1.7015 H         1 <0>         0.1439
     27 N6         -2.9491   -8.0715   -2.3657 N.pl3     1 <0>        -0.6743
     28 C20        -1.8024   -9.6797   -3.8193 C.ar      1 <0>        -0.1916
     29 C21        -3.0111  -10.2409   -4.2030 C.ar      1 <0>        -0.0520
     30 C22        -3.0478  -10.9993   -5.3628 C.ar      1 <0>        -0.1647
     31 C23        -1.8866  -11.1697   -6.0931 C.ar      1 <0>         0.1298
     32 N7         -0.7546  -10.6214   -5.6977 N.ar      1 <0>        -0.4769
     33 C24        -0.6839   -9.8889   -4.6033 C.ar      1 <0>         0.1462
     34 H3         -0.9665    1.8612    0.0259 H         1 <0>         0.1601
     35 H4          1.0933    3.1789    0.0083 H         1 <0>         0.1645
     36 H5          3.2717    2.1606   -0.0175 H         1 <0>         0.1638
     37 H6          3.4952   -2.5561   -0.9413 H         1 <0>         0.1710
     38 H7          3.5129   -2.5667    0.8465 H         1 <0>         0.1745
     39 H8         -0.9210   -0.5647    0.0081 H         1 <0>         0.1598
     40 H9          1.1268   -3.9987    0.5563 H         1 <0>         0.1134
     41 H10        -0.2596   -2.8905    0.4214 H         1 <0>         0.1205
     42 H11         0.0203   -2.8403   -2.0419 H         1 <0>         0.0930
     43 H12         1.4067   -3.9484   -1.9070 H         1 <0>         0.0606
     44 H13        -0.1087   -5.5443   -0.8759 H         1 <0>         0.3681
     45 H14        -3.3149   -2.6243   -4.5813 H         1 <0>         0.1513
     46 H15        -5.7168   -2.9654   -4.6380 H         1 <0>         0.1497
     47 H16        -6.7455   -5.0030   -3.7633 H         1 <0>         0.1481
     48 H17        -5.3904   -6.8109   -2.8459 H         1 <0>         0.1423
     49 H18        -0.0237   -7.8396   -1.9241 H         1 <0>         0.3716
     50 H19        -3.7912   -8.3918   -2.0063 H         1 <0>         0.4646
     51 H20        -3.9026  -10.0909   -3.6120 H         1 <0>         0.1333
     52 H21        -3.9718  -11.4515   -5.6915 H         1 <0>         0.1494
     53 H22        -1.9068  -11.7591   -6.9979 H         1 <0>         0.1694
     54 H23         0.2601   -9.4513   -4.3139 H         1 <0>         0.1627
     55 H24        -1.2160   -3.5370   -3.8881 H         1 <0>         0.4327
     56 H25         4.5087   -0.3528   -0.0446 H         1 <0>         0.4586
@<TRIPOS>BOND
     1    1    9 ar
     2    1    2 ar
     3    1   34 1
     4    2    3 ar
     5    2   35 1
     6    3    4 ar
     7    3   36 1
     8    4    8 ar
     9    4    5 2
    10    5    6 1
    11    5   56 1
    12    6    7 1
    13    6   37 1
    14    6   38 1
    15    7    8 2
    16    7   10 1
    17    8    9 ar
    18    9   39 1
    19   10   11 1
    20   10   40 1
    21   10   41 1
    22   11   12 1
    23   11   42 1
    24   11   43 1
    25   12   13 1
    26   12   44 1
    27   13   14 1
    28   13   23 1
    29   13   15 1
    30   15   16 2
    31   15   55 1
    32   16   21 ar
    33   16   17 ar
    34   17   18 ar
    35   17   45 1
    36   18   19 ar
    37   18   46 1
    38   19   20 ar
    39   19   47 1
    40   20   21 ar
    41   20   48 1
    42   21   22 2
    43   22   27 1
    44   22   23 1
    45   23   24 1
    46   24   25 1
    47   24   49 1
    48   25   26 1
    49   25   27 1
    50   25   28 1
    51   27   50 1
    52   28   33 ar
    53   28   29 ar
    54   29   30 ar
    55   29   51 1
    56   30   31 ar
    57   30   52 1
    58   31   32 ar
    59   31   53 1
    60   32   33 ar
    61   33   54 1
@<TRIPOS>MOLECULE
ZINC65529814
   57    60     0     0     0
SMALL
USER_CHARGES

@<TRIPOS>ATOM
      1 C1          1.6586    1.3726    0.2172 C.3       1 <0>        -0.1272
      2 C2          1.5051   -0.1265    0.2030 C.ar      1 <0>        -0.0441
      3 C3          2.0340   -0.8631   -0.8421 C.ar      1 <0>        -0.1285
      4 C4          1.8970   -2.2357   -0.8612 C.ar      1 <0>        -0.0484
      5 C5          1.2235   -2.8812    0.1772 C.ar      1 <0>        -0.1577
      6 C6          0.6928   -2.1321    1.2287 C.ar      1 <0>        -0.0791
      7 C7          0.8410   -0.7606    1.2380 C.ar      1 <0>        -0.1268
      8 C8          1.0725   -4.3516    0.1630 C.2       1 <0>         0.5692
      9 O1          1.5354   -5.0013   -0.7542 O.2       1 <0>        -0.5188
     10 N1          0.4217   -4.9719    1.1671 N.am      1 <0>        -0.6656
     11 C9          0.1740   -6.3464    1.0960 C.ar      1 <0>         0.1761
     12 C10         0.1896   -6.9924   -0.1323 C.ar      1 <0>        -0.1507
     13 C11        -0.0561   -8.3561   -0.1985 C.ar      1 <0>         0.1382
     14 C12        -0.3170   -9.0708    0.9642 C.ar      1 <0>        -0.1335
     15 C13        -0.3324   -8.4248    2.1851 C.ar      1 <0>        -0.0805
     16 C14        -0.0824   -7.0677    2.2552 C.ar      1 <0>        -0.1154
     17 C15        -0.0939   -6.3681    3.5900 C.3       1 <0>        -0.1228
     18 N2         -0.0417   -9.0111   -1.4348 N.am      1 <0>        -0.6480
     19 C16         0.3866  -10.2864   -1.5169 C.2       1 <0>         0.5195
     20 O2          0.8436  -10.8368   -0.5375 O.2       1 <0>        -0.5243
     21 C17         0.2977  -11.0284   -2.8255 C.3       1 <0>        -0.1436
     22 C18         0.8378  -12.4242   -2.6493 C.ar      1 <0>         0.0952
     23 C19         2.2086  -12.6501   -2.8672 C.ar      1 <0>         0.0434
     24 C20         2.7752  -13.8659   -2.7326 C.ar      1 <0>        -0.1344
     25 C21         1.9446  -15.0137   -2.3429 C.ar      1 <0>         0.3262
     26 N3          2.2115  -16.2719   -2.1426 N.pl3     1 <0>        -0.4678
     27 C22         0.9558  -16.9345   -1.7685 C.3       1 <0>         0.2502
     28 H1          1.0433  -17.3668   -0.7717 H         1 <0>         0.2390
     29 N4         -0.0801  -15.8940   -1.7774 N.pl3     1 <0>        -0.4736
     30 C23         0.4937  -14.7745   -2.1117 C.ar      1 <0>         0.3269
     31 C24        -0.0113  -13.4053   -2.2837 C.ar      1 <0>        -0.1418
     32 C25         0.6146  -18.0256   -2.7854 C.3       1 <0>        -0.1814
     33 H2          2.5824    1.6384    0.7311 H         1 <0>         0.0807
     34 H3          1.6928    1.7441   -0.8070 H         1 <0>         0.0741
     35 H4          0.8117    1.8197    0.7377 H         1 <0>         0.0740
     36 H5          2.5548   -0.3623   -1.6448 H         1 <0>         0.1347
     37 H6          2.3096   -2.8094   -1.6778 H         1 <0>         0.1370
     38 H7          0.1702   -2.6255    2.0349 H         1 <0>         0.1244
     39 H8          0.4344   -0.1802    2.0530 H         1 <0>         0.1343
     40 H9          0.1250   -4.4649    1.9390 H         1 <0>         0.4161
     41 H10         0.3923   -6.4347   -1.0346 H         1 <0>         0.1608
     42 H11        -0.5084  -10.1325    0.9132 H         1 <0>         0.1294
     43 H12        -0.5358   -8.9826    3.0873 H         1 <0>         0.1334
     44 H13        -1.1018   -6.0132    3.8054 H         1 <0>         0.0785
     45 H14         0.2202   -7.0641    4.3677 H         1 <0>         0.0778
     46 H15         0.5914   -5.5209    3.5621 H         1 <0>         0.0658
     47 H16        -0.3399   -8.5474   -2.2329 H         1 <0>         0.4194
     48 H17        -0.7434  -11.0792   -3.1444 H         1 <0>         0.1472
     49 H18         0.8838  -10.5047   -3.5807 H         1 <0>         0.1495
     50 H19         2.8322  -11.8164   -3.1542 H         1 <0>         0.2024
     51 H20         3.8325  -13.9955   -2.9104 H         1 <0>         0.2092
     52 H21        -1.0567  -13.1873   -2.1222 H         1 <0>         0.2043
     53 H22         1.4036  -18.7776   -2.7899 H         1 <0>         0.1401
     54 H23        -0.3315  -18.4933   -2.5129 H         1 <0>         0.1403
     55 H24         0.5286  -17.5832   -3.7779 H         1 <0>         0.1066
     56 H25         3.0808  -16.6944   -2.2255 H         1 <0>         0.4954
     57 H26        -1.0199  -16.0181   -1.5719 H         1 <0>         0.4947
@<TRIPOS>BOND
     1    1    2 1
     2    1   33 1
     3    1   34 1
     4    1   35 1
     5    2    7 ar
     6    2    3 ar
     7    3    4 ar
     8    3   36 1
     9    4    5 ar
    10    4   37 1
    11    5    6 ar
    12    5    8 1
    13    6    7 ar
    14    6   38 1
    15    7   39 1
    16    8    9 2
    17    8   10 am
    18   10   11 1
    19   10   40 1
    20   11   16 ar
    21   11   12 ar
    22   12   13 ar
    23   12   41 1
    24   13   14 ar
    25   13   18 1
    26   14   15 ar
    27   14   42 1
    28   15   16 ar
    29   15   43 1
    30   16   17 1
    31   17   44 1
    32   17   45 1
    33   17   46 1
    34   18   19 am
    35   18   47 1
    36   19   20 2
    37   19   21 1
    38   21   22 1
    39   21   48 1
    40   21   49 1
    41   22   31 ar
    42   22   23 ar
    43   23   24 ar
    44   23   50 1
    45   24   25 ar
    46   24   51 1
    47   25   30 ar
    48   25   26 2
    49   26   27 1
    50   26   56 1
    51   27   28 1
    52   27   29 1
    53   27   32 1
    54   29   30 2
    55   29   57 1
    56   30   31 ar
    57   31   52 1
    58   32   53 1
    59   32   54 1
    60   32   55 1
@<TRIPOS>MOLECULE
ZINC38603927
   52    54     0     0     0
SMALL
USER_CHARGES

@<TRIPOS>ATOM
      1 C1         -0.1663    1.3523    2.9996 C.3       1 <0>        -0.1531
      2 C2         -0.0570   -0.1734    3.0323 C.3       1 <0>        -0.1053
      3 H1         -0.1055   -0.5636    2.0157 H         1 <0>         0.0984
      4 C3         -1.2106   -0.7512    3.8574 C.3       1 <0>        -0.1343
      5 C4         -1.0482   -2.2711    3.9494 C.3       1 <0>        -0.1083
      6 H2         -1.1167   -2.7055    2.9520 H         1 <0>         0.0975
      7 C5          0.3185   -2.5968    4.5558 C.3       1 <0>        -0.0072
      8 N1          1.3793   -2.0403    3.7075 N.4       1 <0>        -0.3731
      9 C6          1.2734   -0.5768    3.6717 C.3       1 <0>        -0.0205
     10 C7          2.6896   -2.4217    4.2512 C.3       1 <0>        -0.0246
     11 C8          3.7755   -1.9680    3.3098 C.2       1 <0>         0.4960
     12 O1          3.4870   -1.5417    2.2122 O.2       1 <0>        -0.4414
     13 N2          5.0672   -2.0362    3.6882 N.am      1 <0>        -0.6020
     14 C9          6.0518   -1.6726    2.8192 C.2       1 <0>         0.3013
     15 C10         7.4123   -1.8827    2.9628 C.ar      1 <0>        -0.1841
     16 C11         8.1816   -2.4970    3.9803 C.ar      1 <0>         0.0058
     17 C12         9.5307   -2.5629    3.8555 C.ar      1 <0>        -0.1195
     18 C13        10.1901   -2.0367    2.7403 C.ar      1 <0>         0.0689
     19 C14         9.5180   -1.4354    1.7292 C.ar      1 <0>        -0.1774
     20 C15         8.1040   -1.3275    1.7868 C.ar      1 <0>         0.3502
     21 N3          7.2350   -0.7982    0.9495 N.pl3     1 <0>        -0.5852
     22 C16         5.8837   -0.9616    1.4948 C.3       1 <0>         0.1337
     23 H3          5.2745   -1.5634    0.8203 H         1 <0>         0.2106
     24 C17         5.2463    0.3874    1.7070 C.2       1 <0>         0.4625
     25 O2          5.9008    1.3019    2.1487 O.2       1 <0>        -0.4442
     26 O3          3.9516    0.5729    1.4054 O.3       1 <0>        -0.3165
     27 C18         3.4452    1.9049    1.5115 C.3       1 <0>         0.0179
     28 Br1        10.5446   -3.3859    5.2232 Br        1 <0>         0.0248
     29 C19        -2.1525   -2.8502    4.8359 C.3       1 <0>        -0.1535
     30 H4          0.6975    1.7674    2.4804 H         1 <0>         0.0637
     31 H5         -1.0779    1.6402    2.4759 H         1 <0>         0.0843
     32 H6         -0.1964    1.7364    4.0193 H         1 <0>         0.0703
     33 H7         -1.1933   -0.3215    4.8590 H         1 <0>         0.0861
     34 H8         -2.1586   -0.5145    3.3743 H         1 <0>         0.1010
     35 H9          0.3859   -2.1622    5.5531 H         1 <0>         0.1369
     36 H10         0.4373   -3.6782    4.6229 H         1 <0>         0.1388
     37 H11         2.0964   -0.1669    3.0862 H         1 <0>         0.1318
     38 H12         1.3212   -0.1852    4.6878 H         1 <0>         0.1328
     39 H13         2.8310   -1.9496    5.2234 H         1 <0>         0.1761
     40 H14         2.7351   -3.5050    4.3633 H         1 <0>         0.1852
     41 H15         5.2961   -2.3442    4.5791 H         1 <0>         0.4532
     42 H16         7.6966   -2.9108    4.8520 H         1 <0>         0.1658
     43 H17        11.2660   -2.1115    2.6834 H         1 <0>         0.1782
     44 H18        10.0570   -1.0388    0.8815 H         1 <0>         0.1800
     45 H19         3.9487    2.5439    0.7860 H         1 <0>         0.0805
     46 H20         2.3736    1.9031    1.3121 H         1 <0>         0.1213
     47 H21         3.6270    2.2837    2.5172 H         1 <0>         0.0730
     48 H22        -3.1255   -2.6146    4.4048 H         1 <0>         0.0827
     49 H23        -2.0364   -3.9321    4.9010 H         1 <0>         0.0713
     50 H24        -2.0825   -2.4166    5.8335 H         1 <0>         0.0698
     51 H25         7.4538   -0.3726    0.1058 H         1 <0>         0.4660
     52 H26         1.2865   -2.4057    2.7716 H         1 <0>         0.4339
@<TRIPOS>BOND
     1    1    2 1
     2    1   30 1
     3    1   31 1
     4    1   32 1
     5    2    3 1
     6    2    9 1
     7    2    4 1
     8    4    5 1
     9    4   33 1
    10    4   34 1
    11    5    6 1
    12    5    7 1
    13    5   29 1
    14    7    8 1
    15    7   35 1
    16    7   36 1
    17    8    9 1
    18    8   10 1
    19    8   52 1
    20    9   37 1
    21    9   38 1
    22   10   11 1
    23   10   39 1
    24   10   40 1
    25   11   12 2
    26   11   13 am
    27   13   14 1
    28   13   41 1
    29   14   22 1
    30   14   15 2
    31   15   20 ar
    32   15   16 ar
    33   16   17 ar
    34   16   42 1
    35   17   18 ar
    36   17   28 1
    37   18   19 ar
    38   18   43 1
    39   19   20 ar
    40   19   44 1
    41   20   21 2
    42   21   22 1
    43   21   51 1
    44   22   23 1
    45   22   24 1
    46   24   25 2
    47   24   26 1
    48   26   27 1
    49   27   45 1
    50   27   46 1
    51   27   47 1
    52   29   48 1
    53   29   49 1
    54   29   50 1
@<TRIPOS>MOLECULE
ZINC38971033
   48    51     0     0     0
SMALL
USER_CHARGES

@<TRIPOS>ATOM
      1 C1          1.1134    0.3529   -0.4540 C.3       1 <0>         0.0188
      2 O1          0.9135   -1.0619   -0.4723 O.3       1 <0>        -0.3040
      3 C2         -0.3672   -1.5054   -0.3722 C.ar      1 <0>         0.1993
      4 C3         -1.4105   -0.5973   -0.2646 C.ar      1 <0>        -0.2268
      5 C4         -2.7115   -1.0507   -0.1635 C.ar      1 <0>         0.0265
      6 C5         -2.9743   -2.4081   -0.1690 C.ar      1 <0>        -0.6961
      7 C6         -1.9362   -3.3152   -0.2757 C.ar      1 <0>         0.0235
      8 C7         -0.6339   -2.8668   -0.3832 C.ar      1 <0>        -0.1675
      9 S1         -4.6348   -2.9831   -0.0393 S.o2      1 <0>         2.6285
     10 O2         -4.5678   -4.3038    0.4808 O.2       1 <0>        -0.9314
     11 O3         -5.3737   -1.9500    0.5979 O.2       1 <0>        -0.9337
     12 N1         -5.2305   -3.1105   -1.5791 N.2       1 <0>        -0.8232
     13 C8         -6.4500   -3.5183   -1.7728 C.2       1 <0>         0.4371
     14 C9         -7.0032   -3.6447   -3.1743 C.3       1 <0>         0.3117
     15 H1         -6.9275   -2.6675   -3.6512 H         1 <0>         0.1898
     16 N2         -8.3900   -4.1123   -3.3259 N.pl3     1 <0>        -0.5166
     17 C10        -9.0726   -4.3939   -2.2513 C.ar      1 <0>         0.3341
     18 C11       -10.4622   -4.8648   -2.3486 C.ar      1 <0>        -0.2040
     19 C12       -11.1373   -5.1470   -1.2128 C.ar      1 <0>         0.0543
     20 C13       -10.5461   -5.0020    0.0533 C.ar      1 <0>        -0.0652
     21 C14        -9.2757   -4.5750    0.2218 C.ar      1 <0>        -0.0822
     22 C15        -8.4737   -4.2500   -0.9015 C.ar      1 <0>         0.2854
     23 N3         -7.2346   -3.8388   -0.7316 N.2       1 <0>        -0.4512
     24 N4         -6.1380   -4.5661   -3.9151 N.pl3     1 <0>        -0.7178
     25 C16        -5.7539   -4.2639   -5.2240 C.ar      1 <0>         0.2040
     26 C17        -6.2924   -3.1585   -5.8699 C.ar      1 <0>        -0.1871
     27 C18        -5.9103   -2.8622   -7.1636 C.ar      1 <0>        -0.0517
     28 C19        -4.9924   -3.6646   -7.8164 C.ar      1 <0>        -0.1371
     29 C20        -4.4539   -4.7659   -7.1770 C.ar      1 <0>        -0.0396
     30 C21        -4.8278   -5.0653   -5.8807 C.ar      1 <0>        -0.1391
     31 Br1        -4.0856   -6.5676   -5.0043 Br        1 <0>        -0.0310
     32 H2          2.1779    0.5706   -0.5410 H         1 <0>         0.1117
     33 H3          0.5805    0.8060   -1.2900 H         1 <0>         0.0633
     34 H4          0.7344    0.7614    0.4828 H         1 <0>         0.0644
     35 H5         -1.2057    0.4631   -0.2595 H         1 <0>         0.1461
     36 H6         -3.5241   -0.3442   -0.0797 H         1 <0>         0.1446
     37 H7         -2.1439   -4.3750   -0.2794 H         1 <0>         0.1483
     38 H8          0.1762   -3.5756   -0.4710 H         1 <0>         0.1494
     39 H9        -10.9355   -4.9829   -3.3122 H         1 <0>         0.1856
     40 H10       -12.1582   -5.4928   -1.2800 H         1 <0>         0.1817
     41 H11       -11.1319   -5.2414    0.9285 H         1 <0>         0.1781
     42 H12        -8.8685   -4.4807    1.2177 H         1 <0>         0.1887
     43 H13        -5.8318   -5.3860   -3.4968 H         1 <0>         0.4202
     44 H14        -7.0096   -2.5314   -5.3611 H         1 <0>         0.1255
     45 H15        -6.3291   -2.0029   -7.6662 H         1 <0>         0.1408
     46 H16        -4.6958   -3.4305   -8.8282 H         1 <0>         0.1420
     47 H17        -3.7376   -5.3907   -7.6898 H         1 <0>         0.1449
     48 H18        -8.7875   -4.2085   -4.2055 H         1 <0>         0.4570
@<TRIPOS>BOND
     1    1    2 1
     2    1   32 1
     3    1   33 1
     4    1   34 1
     5    2    3 1
     6    3    8 ar
     7    3    4 ar
     8    4    5 ar
     9    4   35 1
    10    5    6 ar
    11    5   36 1
    12    6    7 ar
    13    6    9 1
    14    7    8 ar
    15    7   37 1
    16    8   38 1
    17    9   10 2
    18    9   11 2
    19    9   12 1
    20   12   13 2
    21   13   23 1
    22   13   14 1
    23   14   15 1
    24   14   16 1
    25   14   24 1
    26   16   17 2
    27   16   48 1
    28   17   22 ar
    29   17   18 ar
    30   18   19 ar
    31   18   39 1
    32   19   20 ar
    33   19   40 1
    34   20   21 ar
    35   20   41 1
    36   21   22 ar
    37   21   42 1
    38   22   23 2
    39   24   25 1
    40   24   43 1
    41   25   30 ar
    42   25   26 ar
    43   26   27 ar
    44   26   44 1
    45   27   28 ar
    46   27   45 1
    47   28   29 ar
    48   28   46 1
    49   29   30 ar
    50   29   47 1
    51   30   31 1
@<TRIPOS>MOLECULE
ZINC40151165
   47    50     0     0     0
SMALL
USER_CHARGES

@<TRIPOS>ATOM
      1 C1         -0.0184    1.5028    0.0103 C.3       1 <0>        -0.1467
      2 C2          0.0021   -0.0041    0.0020 C.2       1 <0>         0.4654
      3 O1          1.0565   -0.5939   -0.0112 O.2       1 <0>        -0.4843
      4 O2         -1.1511   -0.6910    0.0093 O.3       1 <0>        -0.3629
      5 C3         -1.0570   -2.1168    0.0008 C.3       1 <0>         0.0496
      6 C4         -2.4627   -2.7208    0.0110 C.3       1 <0>         0.1333
      7 H1         -2.4111   -3.8042   -0.0969 H         1 <0>         0.1903
      8 C5         -3.3033   -2.1200   -1.0935 C.2       1 <0>        -0.0418
      9 C6         -4.3259   -1.5143   -0.5284 C.2       1 <0>         0.0439
     10 N1         -4.2936   -1.6249    0.8484 N.pl3     1 <0>        -0.4173
     11 N2         -3.1677   -2.3610    1.2529 N.pl3     1 <0>        -0.2939
     12 C7         -2.7931   -2.6845    2.5595 C.ar      1 <0>         0.1667
     13 C8         -1.6376   -3.4201    2.7902 C.ar      1 <0>        -0.1121
     14 C9         -1.2699   -3.7385    4.0828 C.ar      1 <0>        -0.0453
     15 C10        -2.0514   -3.3259    5.1473 C.ar      1 <0>        -0.0647
     16 C11        -3.2029   -2.5931    4.9206 C.ar      1 <0>        -0.0509
     17 C12        -3.5724   -2.2664    3.6306 C.ar      1 <0>        -0.1242
     18 Br1        -1.5451   -3.7649    6.9156 Br        1 <0>         0.0187
     19 C13        -5.4028   -0.7868   -1.2914 C.3       1 <0>         0.1452
     20 H2         -5.2146   -0.9421   -2.3538 H         1 <0>         0.2087
     21 C14        -5.2511    0.6903   -1.0076 C.2       1 <0>         0.4980
     22 O3         -4.2085    1.2613   -1.2579 O.2       1 <0>        -0.3719
     23 N3         -6.2782    1.3588   -0.4787 N.am      1 <0>        -0.5548
     24 C15        -7.4235    0.7609   -0.1974 C.ar      1 <0>         0.2431
     25 C16        -8.4908    1.4986    0.3621 C.ar      1 <0>        -0.1606
     26 C17        -9.6653    0.8914    0.6529 C.ar      1 <0>         0.0326
     27 C18        -9.8916   -0.4755    0.4223 C.ar      1 <0>        -0.0431
     28 C19        -8.9389   -1.2725   -0.1094 C.ar      1 <0>        -0.1182
     29 C20        -7.6326   -0.6866   -0.4529 C.ar      1 <0>         0.2346
     30 N4         -6.6897   -1.4213   -0.9663 N.pl3     1 <0>        -0.5222
     31 H3          1.0042    1.8801    0.0026 H         1 <0>         0.1148
     32 H4         -0.5455    1.8639   -0.8728 H         1 <0>         0.1057
     33 H5         -0.5286    1.8543    0.9071 H         1 <0>         0.1003
     34 H6         -0.5289   -2.4407   -0.8960 H         1 <0>         0.1242
     35 H7         -0.5119   -2.4503    0.8838 H         1 <0>         0.1035
     36 H8         -3.1009   -2.1770   -2.1529 H         1 <0>         0.2186
     37 H9         -4.9546   -1.2485    1.4503 H         1 <0>         0.4500
     38 H10        -1.0275   -3.7430    1.9596 H         1 <0>         0.1548
     39 H11        -0.3715   -4.3103    4.2627 H         1 <0>         0.1671
     40 H12        -3.8112   -2.2727    5.7535 H         1 <0>         0.1616
     41 H13        -4.4689   -1.6906    3.4545 H         1 <0>         0.1348
     42 H14        -8.3688    2.5534    0.5594 H         1 <0>         0.1834
     43 H15       -10.4615    1.4827    1.0805 H         1 <0>         0.1793
     44 H16       -10.8514   -0.9003    0.6767 H         1 <0>         0.1810
     45 H17        -9.1321   -2.3215   -0.2789 H         1 <0>         0.1858
     46 H18        -6.8324   -2.3665   -1.1312 H         1 <0>         0.4637
     47 H19        -6.1819    2.3065   -0.2959 H         1 <0>         0.4561
@<TRIPOS>BOND
     1    1    2 1
     2    1   31 1
     3    1   32 1
     4    1   33 1
     5    2    3 2
     6    2    4 1
     7    4    5 1
     8    5    6 1
     9    5   34 1
    10    5   35 1
    11    6    7 1
    12    6   11 1
    13    6    8 1
    14    8    9 2
    15    8   36 1
    16    9   10 1
    17    9   19 1
    18   10   11 1
    19   10   37 1
    20   11   12 1
    21   12   17 ar
    22   12   13 ar
    23   13   14 ar
    24   13   38 1
    25   14   15 ar
    26   14   39 1
    27   15   16 ar
    28   15   18 1
    29   16   17 ar
    30   16   40 1
    31   17   41 1
    32   19   20 1
    33   19   30 1
    34   19   21 1
    35   21   22 2
    36   21   23 am
    37   23   24 2
    38   23   47 1
    39   24   29 ar
    40   24   25 ar
    41   25   26 ar
    42   25   42 1
    43   26   27 ar
    44   26   43 1
    45   27   28 ar
    46   27   44 1
    47   28   29 ar
    48   28   45 1
    49   29   30 2
    50   30   46 1
@<TRIPOS>MOLECULE
ZINC63503459
   67    71     0     0     0
SMALL
USER_CHARGES

@<TRIPOS>ATOM
      1 C1         -0.0187    1.5258    0.0104 C.3       1 <0>        -0.1502
      2 C2          0.0021   -0.0041    0.0020 C.3       1 <0>        -0.0490
      3 C3         -1.4295   -0.5371    0.0156 C.3       1 <0>        -0.1123
      4 C4         -2.1785    0.0282    1.2243 C.3       1 <0>        -0.1208
      5 C5         -1.5160   -0.4625    2.5154 C.3       1 <0>        -0.0928
      6 C6         -0.0440   -0.1131    2.4689 C.2       1 <0>        -0.0947
      7 C7          0.5298    0.5216    3.4609 C.2       1 <0>        -0.2128
      8 C8          0.7441   -0.5173    1.2447 C.3       1 <0>        -0.0464
      9 H1          0.8437   -1.6016    1.1969 H         1 <0>         0.0946
     10 C9          2.1197    0.1419    1.2821 C.3       1 <0>        -0.1296
     11 C10         2.9450   -0.2684    0.0604 C.3       1 <0>        -0.0991
     12 H2          3.3185   -1.2899    0.1327 H         1 <0>         0.1348
     13 C11         2.1677   -0.0095   -1.2447 C.3       1 <0>         0.0894
     14 H3          2.6954   -0.4863   -2.0706 H         1 <0>         0.0965
     15 C12         0.7548   -0.5009   -1.2315 C.3       1 <0>        -0.1156
     16 O1          2.2391    1.4122   -1.4073 O.3       1 <0>        -0.3020
     17 C13         3.4927    1.7958   -1.0784 C.2       1 <0>         0.4713
     18 O2          4.0610    2.7744   -1.5017 O.2       1 <0>        -0.4448
     19 C14         4.0840    0.7865   -0.0780 C.3       1 <0>        -0.1880
     20 H4          4.9867    0.3252   -0.4784 H         1 <0>         0.1444
     21 C15         4.3702    1.4487    1.2713 C.3       1 <0>         0.0028
     22 N1          5.5238    2.3487    1.1401 N.4       1 <0>        -0.5145
     23 C16         5.7986    2.9845    2.4356 C.3       1 <0>        -0.0078
     24 C17         7.0000    3.9220    2.2990 C.3       1 <0>        -0.1068
     25 C18         7.2819    4.5742    3.6280 C.2       1 <0>        -0.0014
     26 C19         8.1711    4.1661    4.5614 C.ar      1 <0>        -0.0876
     27 C20         9.1059    3.0371    4.6193 C.ar      1 <0>        -0.1368
     28 C21         9.8918    2.8770    5.7109 C.ar      1 <0>         0.1353
     29 C22         9.8471    3.7600    6.8040 C.ar      1 <0>        -0.0277
     30 C23         9.0202    4.8266    6.8435 C.ar      1 <0>        -0.1472
     31 C24         8.1250    5.0958    5.7137 C.ar      1 <0>         0.3194
     32 N2          7.2429    6.0401    5.5008 N.pl3     1 <0>        -0.5529
     33 C25         6.6322    5.8214    4.1846 C.3       1 <0>         0.0630
     34 O3         10.7529    1.8261    5.7511 O.3       1 <0>        -0.2970
     35 C26        11.5628    1.6953    6.9212 C.3       1 <0>         0.0101
     36 H5          1.0039    1.9031    0.0027 H         1 <0>         0.0602
     37 H6         -0.5459    1.8868   -0.8726 H         1 <0>         0.0609
     38 H7         -0.5289    1.8773    0.9072 H         1 <0>         0.0615
     39 H8         -1.9378   -0.2348   -0.9000 H         1 <0>         0.0715
     40 H9         -1.4107   -1.6252    0.0770 H         1 <0>         0.0688
     41 H10        -2.1491    1.1173    1.1926 H         1 <0>         0.0683
     42 H11        -3.2153   -0.3074    1.1982 H         1 <0>         0.0718
     43 H12        -1.9805    0.0246    3.3728 H         1 <0>         0.0729
     44 H13        -1.6328   -1.5431    2.5984 H         1 <0>         0.0782
     45 H14        -0.0486    0.8034    4.3283 H         1 <0>         0.1006
     46 H15         1.5813    0.7631    3.4112 H         1 <0>         0.0904
     47 H16         1.9993    1.2253    1.2874 H         1 <0>         0.0767
     48 H17         2.6414   -0.1658    2.1884 H         1 <0>         0.0805
     49 H18         0.7667   -1.5908   -1.2279 H         1 <0>         0.0993
     50 H19         0.2411   -0.1530   -2.1277 H         1 <0>         0.0935
     51 H20         3.4977    2.0201    1.5879 H         1 <0>         0.1459
     52 H21         4.5907    0.6812    2.0132 H         1 <0>         0.1566
     53 H22         6.3315    1.8198    0.8470 H         1 <0>         0.4347
     54 H23         4.9260    3.5560    2.7522 H         1 <0>         0.1415
     55 H24         6.0190    2.2171    3.1775 H         1 <0>         0.1454
     56 H25         7.8725    3.3505    1.9824 H         1 <0>         0.1291
     57 H26         6.7795    4.6894    1.5571 H         1 <0>         0.1309
     58 H27         9.1668    2.3386    3.7978 H         1 <0>         0.1641
     59 H28        10.4995    3.5778    7.6451 H         1 <0>         0.1744
     60 H29         9.0180    5.4791    7.7041 H         1 <0>         0.1768
     61 H30         6.8287    6.6711    3.5308 H         1 <0>         0.1818
     62 H31         5.5582    5.6696    4.2919 H         1 <0>         0.1761
     63 H32        12.1813    2.5854    7.0363 H         1 <0>         0.0701
     64 H33        10.9220    1.5825    7.7957 H         1 <0>         0.0695
     65 H34        12.2026    0.8183    6.8240 H         1 <0>         0.1232
     66 H35         7.0315    6.7651    6.1095 H         1 <0>         0.4634
     67 H36         5.3197    3.0592    0.4534 H         1 <0>         0.4377
@<TRIPOS>BOND
     1    1    2 1
     2    1   36 1
     3    1   37 1
     4    1   38 1
     5    2    8 1
     6    2   15 1
     7    2    3 1
     8    3    4 1
     9    3   39 1
    10    3   40 1
    11    4    5 1
    12    4   41 1
    13    4   42 1
    14    5    6 1
    15    5   43 1
    16    5   44 1
    17    6    7 2
    18    6    8 1
    19    7   45 1
    20    7   46 1
    21    8    9 1
    22    8   10 1
    23   10   11 1
    24   10   47 1
    25   10   48 1
    26   11   12 1
    27   11   19 1
    28   11   13 1
    29   13   14 1
    30   13   15 1
    31   13   16 1
    32   15   49 1
    33   15   50 1
    34   16   17 1
    35   17   18 2
    36   17   19 1
    37   19   20 1
    38   19   21 1
    39   21   22 1
    40   21   51 1
    41   21   52 1
    42   22   23 1
    43   22   53 1
    44   22   67 1
    45   23   24 1
    46   23   54 1
    47   23   55 1
    48   24   25 1
    49   24   56 1
    50   24   57 1
    51   25   33 1
    52   25   26 2
    53   26   31 ar
    54   26   27 ar
    55   27   28 ar
    56   27   58 1
    57   28   29 ar
    58   28   34 1
    59   29   30 ar
    60   29   59 1
    61   30   31 ar
    62   30   60 1
    63   31   32 2
    64   32   33 1
    65   32   66 1
    66   33   61 1
    67   33   62 1
    68   34   35 1
    69   35   63 1
    70   35   64 1
    71   35   65 1
@<TRIPOS>MOLECULE
ZINC64604171
   52    55     0     0     0
SMALL
USER_CHARGES

@<TRIPOS>ATOM
      1 C1         -0.0189    1.4981   -0.0389 C.3       1 <0>        -0.1621
      2 C2          0.0004   -0.0088   -0.0480 C.ar      1 <0>         0.0889
      3 C3         -0.0061   -0.6765   -1.2855 C.ar      1 <0>         0.0348
      4 C4          0.0095   -2.0207   -1.3861 C.ar      1 <0>        -0.1309
      5 C5          0.0350   -2.8388   -0.1658 C.ar      1 <0>         0.3185
      6 N1          0.0533   -4.1244    0.0377 N.pl3     1 <0>        -0.4648
      7 C6          0.0738   -4.3403    1.4899 C.3       1 <0>         0.2256
      8 H1          0.9775   -4.8788    1.7754 H         1 <0>         0.2689
      9 N2          0.0650   -3.0079    2.1068 N.pl3     1 <0>        -0.4818
     10 C7          0.0424   -2.1320    1.1442 C.ar      1 <0>         0.3122
     11 C8          0.0288   -0.6627    1.1305 C.ar      1 <0>        -0.1645
     12 S1         -1.3947   -5.2744    2.0013 S.3       1 <0>         0.0556
     13 C9         -2.7832   -4.2432    1.4543 C.3       1 <0>        -0.0598
     14 C10        -4.0820   -4.9131    1.8224 C.2       1 <0>         0.2323
     15 N3         -4.7552   -5.7787    1.0562 N.2       1 <0>        -0.5393
     16 C11        -5.8375   -6.1712    1.6689 C.2       1 <0>         0.3330
     17 O1         -5.8899   -5.5611    2.8597 O.3       1 <0>        -0.0652
     18 N4         -4.7288   -4.7478    2.9403 N.2       1 <0>        -0.3011
     19 C12        -6.8543   -7.1439    1.1295 C.3       1 <0>        -0.0347
     20 C13        -6.4668   -8.5662    1.5392 C.3       1 <0>        -0.1363
     21 C14        -7.4836   -9.5390    0.9998 C.2       1 <0>         0.5162
     22 O2         -8.4255   -9.1344    0.3515 O.2       1 <0>        -0.5092
     23 N5         -7.3463  -10.8584    1.2377 N.am      1 <0>        -0.6657
     24 C15        -8.3395  -11.7516    0.8208 C.ar      1 <0>         0.1353
     25 C16        -8.6412  -12.8664    1.5925 C.ar      1 <0>        -0.1305
     26 C17        -9.6221  -13.7462    1.1792 C.ar      1 <0>        -0.0892
     27 C18       -10.3040  -13.5190   -0.0021 C.ar      1 <0>        -0.0785
     28 C19       -10.0062  -12.4094   -0.7736 C.ar      1 <0>        -0.0226
     29 C20        -9.0291  -11.5222   -0.3620 C.ar      1 <0>        -0.1070
     30 Cl1       -10.8643  -12.1282   -2.2563 Cl        1 <0>        -0.0547
     31 C21       -11.3731  -14.4817   -0.4505 C.3       1 <0>        -0.1247
     32 H2          1.0039    1.8746   -0.0541 H         1 <0>         0.1333
     33 H3         -0.5523    1.8599   -0.9179 H         1 <0>         0.1154
     34 H4         -0.5221    1.8496    0.8618 H         1 <0>         0.1117
     35 H5         -0.0248   -0.0890   -2.1915 H         1 <0>         0.2057
     36 H6          0.0030   -2.4933   -2.3573 H         1 <0>         0.2102
     37 H7          0.0373   -0.1104    2.0586 H         1 <0>         0.2055
     38 H8         -2.7262   -3.2693    1.9405 H         1 <0>         0.1321
     39 H9         -2.7353   -4.1130    0.3732 H         1 <0>         0.1384
     40 H10        -7.8373   -6.9041    1.5349 H         1 <0>         0.1286
     41 H11        -6.8828   -7.0740    0.0421 H         1 <0>         0.1349
     42 H12        -5.4838   -8.8060    1.1337 H         1 <0>         0.1089
     43 H13        -6.4383   -8.6361    2.6265 H         1 <0>         0.1107
     44 H14        -6.5590  -11.1889    1.6980 H         1 <0>         0.4146
     45 H15        -8.1087  -13.0452    2.5150 H         1 <0>         0.1334
     46 H16        -9.8567  -14.6130    1.7792 H         1 <0>         0.1406
     47 H17        -8.7998  -10.6539   -0.9619 H         1 <0>         0.1489
     48 H18       -12.3361  -14.1691   -0.0467 H         1 <0>         0.0798
     49 H19       -11.4211  -14.4900   -1.5394 H         1 <0>         0.0762
     50 H20       -11.1355  -15.4824   -0.0896 H         1 <0>         0.0749
     51 H21         0.0531   -4.8135   -0.6450 H         1 <0>         0.4993
     52 H22         0.0743   -2.8156    3.0575 H         1 <0>         0.4982
@<TRIPOS>BOND
     1    1    2 1
     2    1   32 1
     3    1   33 1
     4    1   34 1
     5    2   11 ar
     6    2    3 ar
     7    3    4 ar
     8    3   35 1
     9    4    5 ar
    10    4   36 1
    11    5   10 ar
    12    5    6 2
    13    6    7 1
    14    6   51 1
    15    7    8 1
    16    7    9 1
    17    7   12 1
    18    9   10 2
    19    9   52 1
    20   10   11 ar
    21   11   37 1
    22   12   13 1
    23   13   14 1
    24   13   38 1
    25   13   39 1
    26   14   18 2
    27   14   15 1
    28   15   16 2
    29   16   17 1
    30   16   19 1
    31   17   18 1
    32   19   20 1
    33   19   40 1
    34   19   41 1
    35   20   21 1
    36   20   42 1
    37   20   43 1
    38   21   22 2
    39   21   23 am
    40   23   24 1
    41   23   44 1
    42   24   29 ar
    43   24   25 ar
    44   25   26 ar
    45   25   45 1
    46   26   27 ar
    47   26   46 1
    48   27   28 ar
    49   27   31 1
    50   28   29 ar
    51   28   30 1
    52   29   47 1
    53   31   48 1
    54   31   49 1
    55   31   50 1
@<TRIPOS>MOLECULE
ZINC12887369
   60    65     0     0     0
SMALL
USER_CHARGES
(3aS,4S,6R,6aR)-4-(1H-indol-3-ylmethyl)-2-sec-butyl-spiro[3a,4,5,6a-tetrahydropyrrolo[3,4-c]pyrrole-6,3'-indoline]-1,2',3-trione
@<TRIPOS>ATOM
      1 C1         -0.7527    1.5927   -1.2315 C.3       1 <0>        -0.1460
      2 C2         -0.0127    1.0858    0.0080 C.3       1 <0>        -0.1437
      3 C3         -0.7288    1.5792    1.2668 C.3       1 <0>         0.1265
      4 H1         -0.8222    2.6646    1.2299 H         1 <0>         0.1137
      5 C4          0.0786    1.1786    2.5031 C.3       1 <0>        -0.1717
      6 N1         -2.0622    0.9766    1.3380 N.am      1 <0>        -0.5586
      7 C5         -2.2563   -0.3461    1.3948 C.2       1 <0>         0.5204
      8 O1         -1.3798   -1.1835    1.3906 O.2       1 <0>        -0.4324
      9 C6         -3.7386   -0.6336    1.4658 C.3       1 <0>        -0.1376
     10 H2         -4.0144   -1.1975    2.3569 H         1 <0>         0.1845
     11 C7         -4.1905   -1.3125    0.1557 C.3       1 <0>         0.0441
     12 H3         -5.0793   -1.9190    0.3299 H         1 <0>         0.1661
     13 C8         -5.1559    0.8146    0.1018 C.3       1 <0>         0.0915
     14 C9         -4.3811    0.7810    1.4251 C.3       1 <0>        -0.1222
     15 H4         -5.0156    0.9829    2.2881 H         1 <0>         0.1816
     16 C10        -3.1849    1.7040    1.3573 C.2       1 <0>         0.5152
     17 O2         -3.2355    2.9148    1.3236 O.2       1 <0>        -0.4185
     18 C11        -6.6165    0.5319    0.3109 C.ar      1 <0>        -0.2012
     19 C12        -7.3101   -0.5356    0.8357 C.ar      1 <0>        -0.0413
     20 C13        -8.6918   -0.5009    0.8973 C.ar      1 <0>        -0.1258
     21 C14        -9.3739    0.6079    0.4302 C.ar      1 <0>        -0.0431
     22 C15        -8.6834    1.6791   -0.0973 C.ar      1 <0>        -0.1244
     23 C16        -7.2923    1.6524   -0.1634 C.ar      1 <0>         0.1722
     24 N2         -6.3832    2.5965   -0.6457 N.am      1 <0>        -0.6403
     25 C17        -5.1076    2.1801   -0.5275 C.2       1 <0>         0.5258
     26 O3         -4.1132    2.7883   -0.8626 O.2       1 <0>        -0.4224
     27 C18        -3.0613   -2.1728   -0.4150 C.3       1 <0>        -0.0523
     28 C19        -3.5617   -2.9213   -1.6235 C.2       1 <0>        -0.2309
     29 C20        -4.0454   -4.1733   -1.6434 C.2       1 <0>         0.1027
     30 N3         -4.4023   -4.5154   -2.9193 N.pl3     1 <0>        -0.5848
     31 H5         -4.7769   -5.3704   -3.1829 H         1 <0>         0.4257
     32 C21        -4.1504   -3.4651   -3.7734 C.ar      1 <0>         0.1001
     33 C22        -3.6183   -2.4183   -2.9982 C.ar      1 <0>        -0.1124
     34 C23        -3.2581   -1.2147   -3.6066 C.ar      1 <0>        -0.1094
     35 C24        -3.4360   -1.0549   -4.9521 C.ar      1 <0>        -0.1204
     36 C25        -3.9658   -2.0823   -5.7202 C.ar      1 <0>        -0.0934
     37 C26        -4.3223   -3.2807   -5.1411 C.ar      1 <0>        -0.1119
     38 H6         -0.2425    1.2411   -2.1283 H         1 <0>         0.0674
     39 H7         -1.7753    1.2154   -1.2238 H         1 <0>         0.0255
     40 H8         -0.7675    2.6825   -1.2255 H         1 <0>         0.0668
     41 H9          0.0021   -0.0041    0.0020 H         1 <0>         0.0827
     42 H10         1.0099    1.4631    0.0003 H         1 <0>         0.0942
     43 H11        -0.4316    1.5301    3.3999 H         1 <0>         0.0633
     44 H12         0.1720    0.0932    2.5400 H         1 <0>         0.0763
     45 H13         1.0707    1.6270    2.4501 H         1 <0>         0.0852
     46 H14        -6.7752   -1.4004    1.1997 H         1 <0>         0.1381
     47 H15        -9.2365   -1.3377    1.3089 H         1 <0>         0.1480
     48 H16       -10.4524    0.6353    0.4790 H         1 <0>         0.1495
     49 H17        -9.2230    2.5415   -0.4599 H         1 <0>         0.1452
     50 H18        -6.6404    3.4528   -1.0219 H         1 <0>         0.4378
     51 H19        -2.2274   -1.5330   -0.7035 H         1 <0>         0.0950
     52 H20        -2.7289   -2.8842    0.3411 H         1 <0>         0.1364
     53 H21        -4.1388   -4.8157   -0.7803 H         1 <0>         0.1798
     54 H22        -2.8448   -0.4110   -3.0153 H         1 <0>         0.1059
     55 H23        -3.1617   -0.1217   -5.4216 H         1 <0>         0.1292
     56 H24        -4.1004   -1.9409   -6.7824 H         1 <0>         0.1344
     57 H25        -4.7335   -4.0743   -5.7474 H         1 <0>         0.1289
     58 N4         -4.5311   -0.2019   -0.7285 N.4       1 <0>        -0.4938
     59 H26        -5.1844   -0.5159   -1.4558 H         1 <0>         0.4488
     60 H27        -3.6828    0.1729   -1.1692 H         1 <0>         0.4295
@<TRIPOS>BOND
     1    1    2 1
     2    1   38 1
     3    1   39 1
     4    1   40 1
     5    2    3 1
     6    2   41 1
     7    2   42 1
     8    3    4 1
     9    3    5 1
    10    3    6 1
    11    5   43 1
    12    5   44 1
    13    5   45 1
    14    6   16 am
    15    6    7 am
    16    7    8 2
    17    7    9 1
    18    9   10 1
    19    9   14 1
    20    9   11 1
    21   11   12 1
    22   11   27 1
    23   11   58 1
    24   13   25 1
    25   13   14 1
    26   13   18 1
    27   13   58 1
    28   14   15 1
    29   14   16 1
    30   16   17 2
    31   18   23 ar
    32   18   19 ar
    33   19   20 ar
    34   19   46 1
    35   20   21 ar
    36   20   47 1
    37   21   22 ar
    38   21   48 1
    39   22   23 ar
    40   22   49 1
    41   23   24 1
    42   24   25 am
    43   24   50 1
    44   25   26 2
    45   27   28 1
    46   27   51 1
    47   27   52 1
    48   28   33 1
    49   28   29 2
    50   29   30 1
    51   29   53 1
    52   30   31 1
    53   30   32 1
    54   32   37 ar
    55   32   33 ar
    56   33   34 ar
    57   34   35 ar
    58   34   54 1
    59   35   36 ar
    60   35   55 1
    61   36   37 ar
    62   36   56 1
    63   37   57 1
    64   58   59 1
    65   58   60 1
@<TRIPOS>MOLECULE
ZINC06862446
   52    53     0     0     0
SMALL
USER_CHARGES

@<TRIPOS>ATOM
      1 C1          0.8122    1.7214    0.3449 C.3       1 <0>        -0.1848
      2 C2          0.8869    0.1975    0.4590 C.3       1 <0>        -0.0239
      3 N1          1.8470   -0.1684    1.5089 N.4       1 <0>        -0.3586
      4 C3          2.0275   -1.6262    1.5210 C.3       1 <0>        -0.0387
      5 C4          2.6650   -2.0641    0.2276 C.2       1 <0>         0.5067
      6 O1          2.9418   -1.2426   -0.6208 O.2       1 <0>        -0.5121
      7 N2          2.9277   -3.3686    0.0135 N.am      1 <0>        -0.6401
      8 C5          3.4306   -3.7878   -1.2248 C.ar      1 <0>         0.0982
      9 C6          4.3125   -2.9765   -1.9267 C.ar      1 <0>        -0.0900
     10 C7          4.8081   -3.3896   -3.1471 C.ar      1 <0>        -0.1298
     11 C8          4.4247   -4.6164   -3.6729 C.ar      1 <0>         0.1539
     12 C9          3.5428   -5.4277   -2.9711 C.ar      1 <0>        -0.1026
     13 C10         3.0516   -5.0171   -1.7480 C.ar      1 <0>        -0.1070
     14 N3          4.9273   -5.0354   -4.9115 N.am      1 <0>        -0.6780
     15 C11         4.1532   -5.7616   -5.7420 C.2       1 <0>         0.5134
     16 O2          2.9928   -5.9734   -5.4594 O.2       1 <0>        -0.5239
     17 C12         4.7293   -6.3104   -7.0218 C.3       1 <0>        -0.1724
     18 C13         1.3370    0.2726    2.8141 C.3       1 <0>        -0.0338
     19 C14         2.3886    0.0415    3.8685 C.2       1 <0>         0.5012
     20 O3          3.4917   -0.3491    3.5495 O.2       1 <0>        -0.5079
     21 N4          2.1033    0.2687    5.1660 N.am      1 <0>        -0.6415
     22 C15         3.1092    0.1581    6.1338 C.ar      1 <0>         0.1218
     23 C16         4.4120    0.5290    5.8279 C.ar      1 <0>        -0.0800
     24 C17         5.4031    0.4198    6.7836 C.ar      1 <0>        -0.1210
     25 C18         5.0989   -0.0597    8.0465 C.ar      1 <0>         0.1174
     26 C19         3.7997   -0.4305    8.3542 C.ar      1 <0>        -0.0590
     27 C20         2.8041   -0.3171    7.4020 C.ar      1 <0>        -0.0948
     28 Cl1         3.4210   -1.0313    9.9383 Cl        1 <0>        -0.0249
     29 F1          6.0701   -0.1665    8.9796 F         1 <0>        -0.1154
     30 H1          1.8123    2.1230    0.1818 H         1 <0>         0.0835
     31 H2          0.1708    1.9919   -0.4939 H         1 <0>         0.1109
     32 H3          0.4002    2.1349    1.2654 H         1 <0>         0.0778
     33 H4         -0.0971   -0.1966    0.7131 H         1 <0>         0.1317
     34 H5          1.2118   -0.2226   -0.4929 H         1 <0>         0.1533
     35 H6          2.6701   -1.9059    2.3558 H         1 <0>         0.1696
     36 H7          1.0577   -2.1115    1.6305 H         1 <0>         0.1628
     37 H8          2.7684   -4.0172    0.7170 H         1 <0>         0.4197
     38 H9          4.6103   -2.0223   -1.5179 H         1 <0>         0.1420
     39 H10         5.4937   -2.7585   -3.6931 H         1 <0>         0.1351
     40 H11         3.2444   -6.3816   -3.3802 H         1 <0>         0.1433
     41 H12         2.3695   -5.6501   -1.1999 H         1 <0>         0.1338
     42 H13         5.8324   -4.8028   -5.1714 H         1 <0>         0.4158
     43 H14         5.7766   -6.0194   -7.1030 H         1 <0>         0.0811
     44 H15         4.6537   -7.3978   -7.0174 H         1 <0>         0.1035
     45 H16         4.1744   -5.9110   -7.8707 H         1 <0>         0.1023
     46 H17         1.0944    1.3343    2.7694 H         1 <0>         0.1742
     47 H18         0.4406   -0.2947    3.0644 H         1 <0>         0.1670
     48 H19         1.2012    0.5089    5.4293 H         1 <0>         0.4245
     49 H20         4.6503    0.9024    4.8429 H         1 <0>         0.1488
     50 H21         6.4163    0.7082    6.5456 H         1 <0>         0.1565
     51 H22         1.7907   -0.6022    7.6430 H         1 <0>         0.1519
     52 H23         2.7327    0.2787    1.3254 H         1 <0>         0.4383
@<TRIPOS>BOND
     1    1    2 1
     2    1   30 1
     3    1   31 1
     4    1   32 1
     5    2    3 1
     6    2   33 1
     7    2   34 1
     8    3    4 1
     9    3   18 1
    10    3   52 1
    11    4    5 1
    12    4   35 1
    13    4   36 1
    14    5    6 2
    15    5    7 am
    16    7    8 1
    17    7   37 1
    18    8   13 ar
    19    8    9 ar
    20    9   10 ar
    21    9   38 1
    22   10   11 ar
    23   10   39 1
    24   11   12 ar
    25   11   14 1
    26   12   13 ar
    27   12   40 1
    28   13   41 1
    29   14   15 am
    30   14   42 1
    31   15   16 2
    32   15   17 1
    33   17   43 1
    34   17   44 1
    35   17   45 1
    36   18   19 1
    37   18   46 1
    38   18   47 1
    39   19   20 2
    40   19   21 am
    41   21   22 1
    42   21   48 1
    43   22   27 ar
    44   22   23 ar
    45   23   24 ar
    46   23   49 1
    47   24   25 ar
    48   24   50 1
    49   25   26 ar
    50   25   29 1
    51   26   27 ar
    52   26   28 1
    53   27   51 1
@<TRIPOS>MOLECULE
ZINC39684062
   71    74     0     0     0
SMALL
USER_CHARGES

@<TRIPOS>ATOM
      1 C1          0.3570    1.5861   -0.1131 C.3       1 <0>        -0.1550
      2 C2          0.3423    0.0563   -0.0926 C.3       1 <0>        -0.1259
      3 C3          0.9563   -0.4771   -1.3886 C.3       1 <0>        -0.1021
      4 C4          0.9415   -2.0069   -1.3680 C.3       1 <0>        -0.1057
      5 H1         -0.0752   -2.3581   -1.1921 H         1 <0>         0.0983
      6 C5          1.8559   -2.5108   -0.2496 C.3       1 <0>        -0.1548
      7 C6          1.4321   -2.5318   -2.6928 C.2       1 <0>         0.5445
      8 O1          1.7612   -1.7584   -3.5672 O.2       1 <0>        -0.5283
      9 N1          1.5052   -3.8606   -2.9058 N.am      1 <0>        -0.6236
     10 C7          1.1448   -4.9517   -1.9700 C.3       1 <0>         0.1096
     11 C8          0.4617   -6.0168   -2.8567 C.3       1 <0>        -0.1152
     12 H2         -0.6207   -5.8902   -2.8364 H         1 <0>         0.1113
     13 C9          1.0048   -5.7563   -4.2718 C.3       1 <0>        -0.0713
     14 C10         1.9582   -4.5608   -4.1315 C.3       1 <0>         0.1064
     15 C11        -0.1376   -5.4038   -5.2196 C.3       1 <0>        -0.1337
     16 C12         0.4201   -5.2053   -6.6319 C.3       1 <0>        -0.0113
     17 N2          1.0874   -6.4358   -7.0738 N.4       1 <0>        -0.5041
     18 C13         2.2415   -6.7171   -6.2116 C.3       1 <0>        -0.0079
     19 C14         1.7610   -6.9793   -4.7815 C.3       1 <0>        -0.1462
     20 C15         0.8357   -7.4019   -2.3954 C.2       1 <0>         0.5182
     21 O2          1.9171   -7.5990   -1.8829 O.2       1 <0>        -0.5203
     22 N3         -0.0316   -8.4215   -2.5524 N.am      1 <0>        -0.7278
     23 C16         0.3320   -9.7680   -2.1039 C.3       1 <0>         0.1207
     24 C17        -0.8200  -10.7314   -2.3967 C.3       1 <0>        -0.0481
     25 C18        -0.4460  -12.1165   -1.9354 C.2       1 <0>        -0.1817
     26 C19        -0.5975  -12.6545   -0.5813 C.ar      1 <0>        -0.0974
     27 C20        -1.0848  -12.1363    0.6198 C.ar      1 <0>        -0.0811
     28 C21        -1.0923  -12.9164    1.7418 C.ar      1 <0>        -0.1348
     29 C22        -0.6188  -14.2203    1.6971 C.ar      1 <0>        -0.0994
     30 C23        -0.1334  -14.7518    0.5221 C.ar      1 <0>        -0.0922
     31 C24        -0.1168  -13.9759   -0.6320 C.ar      1 <0>         0.0973
     32 N4          0.2928  -14.2096   -1.9257 N.pl3     1 <0>        -0.5914
     33 C25         0.0837  -13.0931   -2.6887 C.2       1 <0>         0.0636
     34 C26         0.3781  -16.1689    0.4879 C.3       1 <0>        -0.1153
     35 H3          1.3849    1.9384   -0.2001 H         1 <0>         0.0557
     36 H4         -0.2228    1.9436   -0.9640 H         1 <0>         0.0547
     37 H5         -0.0804    1.9660    0.8101 H         1 <0>         0.0574
     38 H6          0.9222   -0.3013    0.7582 H         1 <0>         0.0661
     39 H7         -0.6855   -0.2960   -0.0056 H         1 <0>         0.0618
     40 H8          0.3764   -0.1195   -2.2394 H         1 <0>         0.0707
     41 H9          1.9841   -0.1248   -1.4755 H         1 <0>         0.0709
     42 H10         2.8726   -2.1596   -0.4255 H         1 <0>         0.0636
     43 H11         1.5010   -2.1311    0.7086 H         1 <0>         0.0769
     44 H12         1.8453   -3.6006   -0.2350 H         1 <0>         0.0622
     45 H13         2.0398   -5.3630   -1.5031 H         1 <0>         0.1007
     46 H14         0.4522   -4.5881   -1.2110 H         1 <0>         0.0957
     47 H15         1.8740   -3.9045   -4.9977 H         1 <0>         0.0881
     48 H16         2.9849   -4.9076   -4.0142 H         1 <0>         0.0830
     49 H17        -0.8672   -6.2136   -5.2270 H         1 <0>         0.0963
     50 H18        -0.6173   -4.4840   -4.8851 H         1 <0>         0.1176
     51 H19        -0.3961   -4.9695   -7.3147 H         1 <0>         0.1396
     52 H20         1.1376   -4.3848   -6.6269 H         1 <0>         0.1339
     53 H21         0.4371   -7.2057   -7.0248 H         1 <0>         0.4273
     54 H22         2.7678   -7.5957   -6.5846 H         1 <0>         0.1389
     55 H23         2.9159   -5.8608   -6.2167 H         1 <0>         0.1331
     56 H24         2.6200   -7.1702   -4.1382 H         1 <0>         0.1267
     57 H25         1.0996   -7.8457   -4.7729 H         1 <0>         0.0966
     58 H26        -0.8965   -8.2639   -2.9622 H         1 <0>         0.4001
     59 H27         1.2255  -10.0984   -2.6335 H         1 <0>         0.0704
     60 H28         0.5296   -9.7530   -1.0321 H         1 <0>         0.0751
     61 H29        -1.7135  -10.4010   -1.8671 H         1 <0>         0.0777
     62 H30        -1.0176  -10.7464   -3.4685 H         1 <0>         0.0723
     63 H31        -1.4541  -11.1223    0.6623 H         1 <0>         0.1186
     64 H32        -1.4694  -12.5150    2.6708 H         1 <0>         0.1245
     65 H33        -0.6306  -14.8243    2.5923 H         1 <0>         0.1276
     66 H34         0.3135  -13.0092   -3.7406 H         1 <0>         0.1672
     67 H35         0.6695  -15.0429   -2.2490 H         1 <0>         0.4176
     68 H36        -0.4407  -16.8449    0.2417 H         1 <0>         0.0712
     69 H37         1.1597  -16.2549   -0.2669 H         1 <0>         0.0573
     70 H38         0.7853  -16.4319    1.4642 H         1 <0>         0.0735
     71 H39         1.4004   -6.3236   -8.0264 H         1 <0>         0.4341
@<TRIPOS>BOND
     1    1    2 1
     2    1   35 1
     3    1   36 1
     4    1   37 1
     5    2    3 1
     6    2   38 1
     7    2   39 1
     8    3    4 1
     9    3   40 1
    10    3   41 1
    11    4    5 1
    12    4    6 1
    13    4    7 1
    14    6   42 1
    15    6   43 1
    16    6   44 1
    17    7    8 2
    18    7    9 am
    19    9   14 1
    20    9   10 1
    21   10   11 1
    22   10   45 1
    23   10   46 1
    24   11   12 1
    25   11   13 1
    26   11   20 1
    27   13   19 1
    28   13   14 1
    29   13   15 1
    30   14   47 1
    31   14   48 1
    32   15   16 1
    33   15   49 1
    34   15   50 1
    35   16   17 1
    36   16   51 1
    37   16   52 1
    38   17   18 1
    39   17   53 1
    40   17   71 1
    41   18   19 1
    42   18   54 1
    43   18   55 1
    44   19   56 1
    45   19   57 1
    46   20   21 2
    47   20   22 am
    48   22   23 1
    49   22   58 1
    50   23   24 1
    51   23   59 1
    52   23   60 1
    53   24   61 1
    54   24   62 1
    55   24   25 1
    56   25   26 1
    57   25   33 2
    58   26   27 ar
    59   26   31 ar
    60   27   28 ar
    61   27   63 1
    62   28   29 ar
    63   28   64 1
    64   29   30 ar
    65   29   65 1
    66   30   31 ar
    67   30   34 1
    68   31   32 1
    69   32   67 1
    70   32   33 1
    71   33   66 1
    72   34   68 1
    73   34   69 1
    74   34   70 1
@<TRIPOS>MOLECULE
ZINC63162427
   52    53     0     0     0
SMALL
USER_CHARGES

@<TRIPOS>ATOM
      1 C1         -0.2750    1.4287   -0.4497 C.3       1 <0>        -0.1501
      2 C2         -0.1215   -0.0930   -0.4073 C.3       1 <0>        -0.0976
      3 C3          0.6402   -0.5551   -1.6228 C.ar      1 <0>        -0.0454
      4 C4         -0.0393   -0.8821   -2.7813 C.ar      1 <0>        -0.1029
      5 C5          0.6594   -1.3060   -3.8962 C.ar      1 <0>        -0.0898
      6 C6          2.0377   -1.4024   -3.8527 C.ar      1 <0>        -0.1506
      7 C7          2.7173   -1.0746   -2.6944 C.ar      1 <0>        -0.1130
      8 C8          2.0189   -0.6466   -1.5809 C.ar      1 <0>        -0.1003
      9 C9          2.7994   -1.8655   -5.0678 C.3       1 <0>         0.0674
     10 C10         3.3806   -0.6531   -5.7980 C.3       1 <0>         0.1262
     11 N1          2.2891    0.2061   -6.2633 N.am      1 <0>        -0.7384
     12 C11         2.5589    1.2872   -7.0217 C.2       1 <0>         0.7178
     13 O1          3.7083    1.5493   -7.3196 O.2       1 <0>        -0.5551
     14 N2          1.5548    2.0777   -7.4498 N.am      1 <0>        -0.6659
     15 C12         1.8416    3.2579   -8.1503 C.2       1 <0>         0.0439
     16 C13         1.3068    3.4740   -9.3906 C.2       1 <0>         0.0028
     17 C14         1.6094    4.6631  -10.0693 C.2       1 <0>        -0.2856
     18 C15         2.4217    5.5810   -9.4974 C.2       1 <0>         0.2117
     19 N3          2.9546    5.3679   -8.2649 N.am      1 <0>        -0.5949
     20 H1          3.5350    6.0381   -7.8712 H         1 <0>         0.4312
     21 C16         2.6811    4.2401   -7.5816 C.2       1 <0>         0.5262
     22 O2          3.1624    4.0652   -6.4736 O.2       1 <0>        -0.5100
     23 C17         1.0298    4.9182  -11.4367 C.3       1 <0>         0.5300
     24 F1          1.4718    6.1597  -11.9064 F         1 <0>        -0.1745
     25 F2          1.4465    3.9121  -12.3150 F         1 <0>        -0.1713
     26 F3         -0.3670    4.9197  -11.3583 F         1 <0>        -0.1714
     27 N4          3.8910   -2.7560   -4.6515 N.4       1 <0>        -0.3811
     28 C18         3.3287   -3.9626   -4.0302 C.3       1 <0>        -0.0473
     29 C19         4.6879   -3.1358   -5.8256 C.3       1 <0>        -0.0568
     30 H2          0.7111    1.8932   -0.4588 H         1 <0>         0.0575
     31 H3         -0.8193    1.7141   -1.3499 H         1 <0>         0.0577
     32 H4         -0.8259    1.7630    0.4294 H         1 <0>         0.0676
     33 H5          0.4228   -0.3784    0.4928 H         1 <0>         0.0802
     34 H6         -1.1076   -0.5575   -0.3982 H         1 <0>         0.0810
     35 H7         -1.1162   -0.8067   -2.8153 H         1 <0>         0.1371
     36 H8          0.1285   -1.5621   -4.8011 H         1 <0>         0.1328
     37 H9          3.7941   -1.1503   -2.6603 H         1 <0>         0.1196
     38 H10         2.5501   -0.3869   -0.6771 H         1 <0>         0.1356
     39 H11         2.1262   -2.4034   -5.7354 H         1 <0>         0.1499
     40 H12         4.0203   -0.0913   -5.1174 H         1 <0>         0.0884
     41 H13         3.9670   -0.9905   -6.6526 H         1 <0>         0.0965
     42 H14         1.3722   -0.0030   -6.0257 H         1 <0>         0.4016
     43 H15         0.6336    1.8301   -7.2732 H         1 <0>         0.4107
     44 H16         0.6591    2.7371   -9.8421 H         1 <0>         0.1507
     45 H17         2.6500    6.4944  -10.0265 H         1 <0>         0.1886
     46 H18         2.6928   -4.4789   -4.7494 H         1 <0>         0.1244
     47 H19         4.1387   -4.6234   -3.7213 H         1 <0>         0.1287
     48 H20         2.7374   -3.6808   -3.1590 H         1 <0>         0.1248
     49 H21         5.1938   -2.2552   -6.2216 H         1 <0>         0.1284
     50 H22         5.4289   -3.8810   -5.5362 H         1 <0>         0.1313
     51 H23         4.0325   -3.5529   -6.5902 H         1 <0>         0.1265
     52 H24         4.4796   -2.2781   -3.9857 H         1 <0>         0.4252
@<TRIPOS>BOND
     1    1    2 1
     2    1   30 1
     3    1   31 1
     4    1   32 1
     5    2    3 1
     6    2   33 1
     7    2   34 1
     8    3    8 ar
     9    3    4 ar
    10    4    5 ar
    11    4   35 1
    12    5    6 ar
    13    5   36 1
    14    6    7 ar
    15    6    9 1
    16    7    8 ar
    17    7   37 1
    18    8   38 1
    19    9   10 1
    20    9   27 1
    21    9   39 1
    22   10   11 1
    23   10   40 1
    24   10   41 1
    25   11   12 am
    26   11   42 1
    27   12   13 2
    28   12   14 am
    29   14   15 1
    30   14   43 1
    31   15   21 1
    32   15   16 2
    33   16   17 1
    34   16   44 1
    35   17   18 2
    36   17   23 1
    37   18   19 1
    38   18   45 1
    39   19   20 1
    40   19   21 am
    41   21   22 2
    42   23   24 1
    43   23   25 1
    44   23   26 1
    45   27   28 1
    46   27   29 1
    47   27   52 1
    48   28   46 1
    49   28   47 1
    50   28   48 1
    51   29   49 1
    52   29   50 1
    53   29   51 1
@<TRIPOS>MOLECULE
ZINC65423539
   54    58     0     0     0
SMALL
USER_CHARGES

@<TRIPOS>ATOM
      1 C1         -0.2469    1.1123    0.2196 C.ar      1 <0>        -0.1139
      2 C2          0.9249    1.8411    0.1381 C.ar      1 <0>        -0.1166
      3 C3          2.1424    1.1887    0.0847 C.ar      1 <0>        -0.1162
      4 C4          2.1882   -0.1926    0.1131 C.ar      1 <0>        -0.0975
      5 C5          1.0165   -0.9215    0.1954 C.ar      1 <0>        -0.1114
      6 C6         -0.2011   -0.2691    0.2475 C.ar      1 <0>        -0.1161
      7 C7          3.5155   -0.9039    0.0538 C.3       1 <0>        -0.0645
      8 C8          4.0463   -1.1122    1.4736 C.3       1 <0>        -0.1204
      9 C9          5.3938   -1.8344    1.4134 C.3       1 <0>         0.1887
     10 H1          6.1162   -1.2555    0.8379 H         1 <0>         0.1707
     11 N1          5.9079   -2.1101    2.7833 N.4       1 <0>        -0.5481
     12 C10         5.1938   -3.3574    3.1513 C.3       1 <0>         0.3148
     13 H2          4.3201   -3.1237    3.7597 H         1 <0>         0.1784
     14 N2          4.7767   -3.9787    1.8841 N.pl3     1 <0>        -0.4833
     15 N3          5.2371   -3.1972    0.8449 N.3       1 <0>        -0.4035
     16 C11         4.0443   -5.1531    1.7554 C.ar      1 <0>         0.4206
     17 C12         3.8236   -5.6931    0.4922 C.ar      1 <0>        -0.1980
     18 C13         3.0932   -6.8620    0.3787 C.ar      1 <0>        -0.0353
     19 C14         2.6059   -7.4541    1.5366 C.ar      1 <0>        -0.1992
     20 C15         2.8627   -6.8637    2.7575 C.ar      1 <0>         0.1467
     21 N4          3.5675   -5.7508    2.8363 N.ar      1 <0>        -0.5222
     22 C16         6.1170   -4.2806    3.9038 C.ar      1 <0>        -0.1268
     23 C17         6.7948   -5.2785    3.2327 C.ar      1 <0>        -0.0815
     24 C18         7.6425   -6.1264    3.9220 C.ar      1 <0>        -0.0948
     25 C19         7.8160   -5.9800    5.2866 C.ar      1 <0>        -0.0845
     26 C20         7.1433   -4.9858    5.9675 C.ar      1 <0>        -0.0663
     27 C21         6.2925   -4.1250    5.2770 C.ar      1 <0>         0.0142
     28 C22         5.5707   -3.0505    6.0029 C.2       1 <0>         0.2732
     29 H3          3.6030   -0.6706    6.4440 H         1 <0>         0.4510
     30 N5          5.7175   -2.7498    7.3003 N.2       1 <0>        -0.5244
     31 C23         4.9340   -1.7523    7.6145 C.2       1 <0>         0.2965
     32 N6          4.2566   -1.3840    6.5121 N.pl3     1 <0>        -0.4711
     33 N7          4.6854   -2.2321    5.4781 N.2       1 <0>        -0.3628
     34 H4         -1.1978    1.6221    0.2659 H         1 <0>         0.1256
     35 H5          0.8891    2.9203    0.1159 H         1 <0>         0.1253
     36 H6          3.0578    1.7582    0.0203 H         1 <0>         0.1211
     37 H7          1.0523   -2.0006    0.2173 H         1 <0>         0.1199
     38 H8         -1.1165   -0.8385    0.3114 H         1 <0>         0.1246
     39 H9          3.3879   -1.8712   -0.4320 H         1 <0>         0.0932
     40 H10         4.2249   -0.3025   -0.5147 H         1 <0>         0.0808
     41 H11         4.1738   -0.1449    1.9594 H         1 <0>         0.0965
     42 H12         3.3369   -1.7136    2.0421 H         1 <0>         0.0930
     43 H13         6.9055   -2.2601    2.7678 H         1 <0>         0.4303
     44 H14         6.1160   -3.5450    0.4921 H         1 <0>         0.3593
     45 H15         4.2170   -5.2059   -0.3877 H         1 <0>         0.1404
     46 H16         2.9056   -7.3041   -0.5886 H         1 <0>         0.1435
     47 H17         2.0317   -8.3672    1.4823 H         1 <0>         0.1423
     48 H18         2.4853   -7.3207    3.6604 H         1 <0>         0.1638
     49 H19         6.6627   -5.3974    2.1674 H         1 <0>         0.1280
     50 H20         8.1706   -6.9060    3.3931 H         1 <0>         0.1396
     51 H21         8.4788   -6.6451    5.8202 H         1 <0>         0.1446
     52 H22         7.2792   -4.8726    7.0330 H         1 <0>         0.1505
     53 H23         4.8452   -1.3012    8.5917 H         1 <0>         0.2360
     54 H24         5.6666   -1.3602    3.4139 H         1 <0>         0.4454
@<TRIPOS>BOND
     1    1    6 ar
     2    1    2 ar
     3    1   34 1
     4    2    3 ar
     5    2   35 1
     6    3    4 ar
     7    3   36 1
     8    4    5 ar
     9    4    7 1
    10    5    6 ar
    11    5   37 1
    12    6   38 1
    13    7    8 1
    14    7   39 1
    15    7   40 1
    16    8    9 1
    17    8   41 1
    18    8   42 1
    19    9   10 1
    20    9   15 1
    21    9   11 1
    22   11   12 1
    23   11   43 1
    24   11   54 1
    25   12   13 1
    26   12   14 1
    27   12   22 1
    28   14   15 1
    29   14   16 1
    30   15   44 1
    31   16   21 ar
    32   16   17 ar
    33   17   18 ar
    34   17   45 1
    35   18   19 ar
    36   18   46 1
    37   19   20 ar
    38   19   47 1
    39   20   21 ar
    40   20   48 1
    41   22   27 ar
    42   22   23 ar
    43   23   24 ar
    44   23   49 1
    45   24   25 ar
    46   24   50 1
    47   25   26 ar
    48   25   51 1
    49   26   27 ar
    50   26   52 1
    51   27   28 1
    52   28   30 1
    53   28   33 2
    54   29   32 1
    55   30   31 2
    56   31   53 1
    57   31   32 1
    58   32   33 1
@<TRIPOS>MOLECULE
ZINC06607298
   57    59     0     0     0
SMALL
USER_CHARGES
2-(p-tolylsulfanyl)-N-(2,2,6,6-tetramethyl-4-piperidyl)-pyridine-3-carboxamide
@<TRIPOS>ATOM
      1 C1         -6.4193   -0.9962   -0.4605 C.3       1 <0>        -0.1229
      2 C2         -5.5194    0.2059   -0.3330 C.ar      1 <0>        -0.0498
      3 C3         -5.2262    0.7186    0.9175 C.ar      1 <0>        -0.1311
      4 C4         -4.4027    1.8205    1.0380 C.ar      1 <0>        -0.0518
      5 C5         -3.8682    2.4139   -0.0989 C.ar      1 <0>        -0.1754
      6 C6         -4.1688    1.8991   -1.3540 C.ar      1 <0>        -0.0519
      7 C7         -4.9891    0.7941   -1.4668 C.ar      1 <0>        -0.1315
      8 S1         -2.8174    3.8205    0.0501 S.3       1 <0>         0.1343
      9 C8         -1.2431    3.0294    0.0340 C.ar      1 <0>         0.1504
     10 C9         -0.0704    3.8053    0.0245 C.ar      1 <0>        -0.1997
     11 C10         1.1681    3.1540    0.0123 C.ar      1 <0>        -0.0226
     12 C11         1.1834    1.7703    0.0101 C.ar      1 <0>        -0.1913
     13 C12        -0.0130    1.0752    0.0200 C.ar      1 <0>         0.1554
     14 N1         -1.1703    1.7067    0.0260 N.ar      1 <0>        -0.4779
     15 C13        -0.1444    5.2774    0.0268 C.2       1 <0>         0.5698
     16 O1         -1.2267    5.8318    0.0375 O.2       1 <0>        -0.5022
     17 N2          0.9874    6.0090    0.0171 N.am      1 <0>        -0.7276
     18 C14         0.9137    7.4755    0.0195 C.3       1 <0>         0.1415
     19 C15         0.7855    7.9754   -1.4192 C.3       1 <0>        -0.1402
     20 C16         0.7299    9.5007   -1.4495 C.3       1 <0>         0.0659
     21 C17         2.1600    9.5694    0.6138 C.3       1 <0>         0.0679
     22 C18         2.2004    8.0432    0.6181 C.3       1 <0>        -0.1370
     23 C19         1.2248   10.0605    1.7252 C.3       1 <0>        -0.1754
     24 C20         3.5800   10.0733    0.9553 C.3       1 <0>        -0.1840
     25 C21        -0.6538    9.9722   -0.9867 C.3       1 <0>        -0.1732
     26 C22         0.8949    9.9430   -2.9206 C.3       1 <0>        -0.1833
     27 H1         -7.4543   -0.6670   -0.5532 H         1 <0>         0.0767
     28 H2         -6.1391   -1.5676   -1.3455 H         1 <0>         0.0703
     29 H3         -6.3154   -1.6234    0.4249 H         1 <0>         0.0706
     30 H4         -5.6420    0.2568    1.8009 H         1 <0>         0.1274
     31 H5         -4.1741    2.2204    2.0149 H         1 <0>         0.1257
     32 H6         -3.7583    2.3604   -2.2400 H         1 <0>         0.1231
     33 H7         -5.2202    0.3911   -2.4418 H         1 <0>         0.1267
     34 H8          2.0894    3.7175    0.0051 H         1 <0>         0.1375
     35 H9          2.1224    1.2368    0.0005 H         1 <0>         0.1463
     36 H10         0.0015   -0.0047    0.0183 H         1 <0>         0.1667
     37 H11         1.8507    5.5668    0.0087 H         1 <0>         0.4043
     38 H12         0.0530    7.7847    0.6069 H         1 <0>         0.1096
     39 H13         1.6441    7.6312   -2.0004 H         1 <0>         0.0908
     40 H14        -0.1260    7.5695   -1.8639 H         1 <0>         0.1171
     41 H15         2.3114    7.6854    1.6442 H         1 <0>         0.1181
     42 H16         3.0554    7.7004    0.0310 H         1 <0>         0.0952
     43 H17         1.5916    9.7100    2.6900 H         1 <0>         0.1063
     44 H18         1.1967   11.1501    1.7213 H         1 <0>         0.0831
     45 H19         0.2214    9.6705    1.5545 H         1 <0>         0.0838
     46 H20         4.2844    9.7091    0.2075 H         1 <0>         0.0818
     47 H21         3.5872   11.1632    0.9609 H         1 <0>         0.0838
     48 H22         3.8702    9.7030    1.9386 H         1 <0>         0.1063
     49 H23        -0.7267   11.0536   -1.1024 H         1 <0>         0.0816
     50 H24        -1.4227    9.4897   -1.5901 H         1 <0>         0.1073
     51 H25        -0.7958    9.7086    0.0613 H         1 <0>         0.0822
     52 H26         1.8707    9.6254   -3.2882 H         1 <0>         0.0803
     53 H27         0.1123    9.4872   -3.5270 H         1 <0>         0.1061
     54 H28         0.8183   11.0284   -2.9844 H         1 <0>         0.0831
     55 N3          1.8170   10.1829   -0.6972 N.4       1 <0>        -0.5090
     56 H29         1.5261   11.1529   -0.5279 H         1 <0>         0.4322
     57 H30         2.6610   10.1759   -1.2820 H         1 <0>         0.4288
@<TRIPOS>BOND
     1    1    2 1
     2    1   27 1
     3    1   28 1
     4    1   29 1
     5    2    7 ar
     6    2    3 ar
     7    3    4 ar
     8    3   30 1
     9    4    5 ar
    10    4   31 1
    11    5    6 ar
    12    5    8 1
    13    6    7 ar
    14    6   32 1
    15    7   33 1
    16    8    9 1
    17    9   14 ar
    18    9   10 ar
    19   10   11 ar
    20   10   15 1
    21   11   12 ar
    22   11   34 1
    23   12   13 ar
    24   12   35 1
    25   13   14 ar
    26   13   36 1
    27   15   16 2
    28   15   17 am
    29   17   18 1
    30   17   37 1
    31   18   22 1
    32   18   19 1
    33   18   38 1
    34   19   20 1
    35   19   39 1
    36   19   40 1
    37   20   25 1
    38   20   26 1
    39   20   55 1
    40   21   22 1
    41   21   23 1
    42   21   24 1
    43   21   55 1
    44   22   41 1
    45   22   42 1
    46   23   43 1
    47   23   44 1
    48   23   45 1
    49   24   46 1
    50   24   47 1
    51   24   48 1
    52   25   49 1
    53   25   50 1
    54   25   51 1
    55   26   52 1
    56   26   53 1
    57   26   54 1
    58   55   56 1
    59   55   57 1
@<TRIPOS>MOLECULE
ZINC20480628
   36    37     0     0     0
SMALL
USER_CHARGES
(S)-(3,4-dimethyl-5-nitro-phenyl)-(3-iodophenyl)methanamine
@<TRIPOS>ATOM
      1 C1          0.6982    2.5531   -5.7361 C.3       1 <0>        -0.1284
      2 C2          0.5297    1.5499   -4.6243 C.ar      1 <0>        -0.0619
      3 C3         -0.0680    1.9283   -3.4364 C.ar      1 <0>        -0.0426
      4 C4         -0.2174    1.0096   -2.4146 C.ar      1 <0>        -0.1366
      5 C5          0.2210   -0.2906   -2.5845 C.ar      1 <0>        -0.0677
      6 C6          0.8133   -0.6703   -3.7741 C.ar      1 <0>        -0.0206
      7 C7          0.9675    0.2500   -4.7943 C.ar      1 <0>         0.0049
      8 C8          1.6134   -0.1641   -6.0913 C.3       1 <0>        -0.1649
      9 N1          1.2822   -2.0624   -3.9561 N.pl3     1 <0>         0.0167
     10 O1          1.1651   -2.6079   -5.0388 O.2       1 <0>        -0.1256
     11 O2          1.7852   -2.6625   -3.0231 O.3       1 <0>        -0.1432
     12 C9         -0.8637    1.4235   -1.1177 C.3       1 <0>         0.1540
     13 H1         -0.8049    2.5152   -0.9964 H         1 <0>         0.1620
     14 C10        -2.3030    0.9770   -1.1087 C.ar      1 <0>        -0.1405
     15 C11        -3.3086    1.8793   -1.4023 C.ar      1 <0>        -0.0676
     16 C12        -4.6287    1.4701   -1.3941 C.ar      1 <0>        -0.0969
     17 C13        -4.9440    0.1582   -1.0928 C.ar      1 <0>        -0.0569
     18 C14        -3.9386   -0.7444   -0.7991 C.ar      1 <0>        -0.0930
     19 C15        -2.6172   -0.3359   -0.8125 C.ar      1 <0>        -0.0889
     20 I1         -4.4160   -2.7324   -0.3419 I         1 <0>        -0.0054
     21 N2         -0.1506    0.8006    0.0054 N.4       1 <0>        -0.6891
     22 H2          0.2929    3.5249   -5.4176 H         1 <0>         0.0819
     23 H3          0.1578    2.2052   -6.6288 H         1 <0>         0.0897
     24 H4          1.7668    2.6614   -5.9734 H         1 <0>         0.0887
     25 H5         -0.4145    2.9428   -3.3054 H         1 <0>         0.1537
     26 H6          0.1002   -1.0096   -1.7877 H         1 <0>         0.1402
     27 H7          1.8932   -1.2266   -6.0387 H         1 <0>         0.1027
     28 H8          2.5137    0.4441   -6.2631 H         1 <0>         0.0937
     29 H9          0.9047   -0.0120   -6.9188 H         1 <0>         0.1035
     30 H10        -3.0625    2.9042   -1.6377 H         1 <0>         0.1422
     31 H11        -5.4140    2.1751   -1.6234 H         1 <0>         0.1482
     32 H12        -5.9756   -0.1617   -1.0871 H         1 <0>         0.1439
     33 H13        -1.8313   -1.0418   -0.5878 H         1 <0>         0.1223
     34 H14        -0.6224    1.1027    0.9521 H         1 <0>         0.4674
     35 H15         0.8999    1.1267   -0.0012 H         1 <0>         0.4658
     36 H16        -0.1954   -0.2940   -0.0937 H         1 <0>         0.4483
@<TRIPOS>BOND
     1    1    2 1
     2    1   22 1
     3    1   23 1
     4    1   24 1
     5    2    7 ar
     6    2    3 ar
     7    3    4 ar
     8    3   25 1
     9    4    5 ar
    10    4   12 1
    11    5    6 ar
    12    5   26 1
    13    6    7 ar
    14    6    9 1
    15    7    8 1
    16    8   27 1
    17    8   28 1
    18    8   29 1
    19    9   10 2
    20    9   11 1
    21   12   13 1
    22   12   14 1
    23   12   21 1
    24   14   19 ar
    25   14   15 ar
    26   15   16 ar
    27   15   30 1
    28   16   17 ar
    29   16   31 1
    30   17   18 ar
    31   17   32 1
    32   18   19 ar
    33   18   20 1
    34   19   33 1
    35   21   34 1
    36   21   35 1
    37   21   36 1
@<TRIPOS>MOLECULE
ZINC40177145
   33    34     0     0     0
SMALL
USER_CHARGES

@<TRIPOS>ATOM
      1 C1         -0.0184    1.5028    0.0103 C.3       1 <0>        -0.1430
      2 C2          0.0021   -0.0041    0.0020 C.ar      1 <0>         0.0032
      3 C3          0.0057   -0.6888   -1.1991 C.ar      1 <0>        -0.0989
      4 C4          0.0245   -2.0707   -1.2067 C.ar      1 <0>        -0.0270
      5 C5          0.0400   -2.7685   -0.0132 C.ar      1 <0>        -0.0363
      6 C6          0.0373   -2.0840    1.1875 C.ar      1 <0>        -0.0661
      7 C7          0.0229   -0.7015    1.1951 C.ar      1 <0>        -0.1378
      8 C8          0.0251    0.0449    2.5043 C.3       1 <0>         0.1408
      9 H1         -0.6478    0.8997    2.4363 H         1 <0>         0.1683
     10 C9          1.4209    0.5271    2.8052 C.ar      1 <0>        -0.1328
     11 C10         2.3542   -0.3448    3.3341 C.ar      1 <0>        -0.1121
     12 C11         3.6344    0.0971    3.6103 C.ar      1 <0>        -0.0692
     13 C12         3.9816    1.4116    3.3574 C.ar      1 <0>        -0.0776
     14 C13         3.0477    2.2836    2.8282 C.ar      1 <0>        -0.0716
     15 C14         1.7693    1.8397    2.5470 C.ar      1 <0>        -0.0818
     16 I1          5.9217    2.0820    3.7764 I         1 <0>        -0.0019
     17 N1         -0.4263   -0.8495    3.5786 N.4       1 <0>        -0.6384
     18 N2          0.0591   -4.2485   -0.0213 N.pl3     1 <0>         0.0251
     19 O1          0.0611   -4.8473   -1.0717 O.2       1 <0>        -0.1290
     20 O2          0.0727   -4.8586    1.0223 O.3       1 <0>        -0.1523
     21 H2          1.0042    1.8801    0.0026 H         1 <0>         0.0988
     22 H3         -0.5455    1.8639   -0.8728 H         1 <0>         0.0950
     23 H4         -0.5286    1.8543    0.9071 H         1 <0>         0.0777
     24 H5         -0.0064   -0.1437   -2.1314 H         1 <0>         0.1639
     25 H6          0.0266   -2.6056   -2.1450 H         1 <0>         0.1684
     26 H7          0.0491   -2.6290    2.1198 H         1 <0>         0.1450
     27 H8          2.0829   -1.3713    3.5320 H         1 <0>         0.1283
     28 H9          4.3634   -0.5840    4.0238 H         1 <0>         0.1448
     29 H10         3.3186    3.3103    2.6306 H         1 <0>         0.1467
     30 H11         1.0413    2.5194    2.1294 H         1 <0>         0.1463
     31 H12        -0.4247   -0.3497    4.4552 H         1 <0>         0.4469
     32 H13        -1.3608   -1.1723    3.3771 H         1 <0>         0.4438
     33 H14         0.1967   -1.6407    3.6415 H         1 <0>         0.4326
@<TRIPOS>BOND
     1    1    2 1
     2    1   21 1
     3    1   22 1
     4    1   23 1
     5    2    7 ar
     6    2    3 ar
     7    3    4 ar
     8    3   24 1
     9    4    5 ar
    10    4   25 1
    11    5    6 ar
    12    5   18 1
    13    6    7 ar
    14    6   26 1
    15    7    8 1
    16    8    9 1
    17    8   10 1
    18    8   17 1
    19   10   15 ar
    20   10   11 ar
    21   11   12 ar
    22   11   27 1
    23   12   13 ar
    24   12   28 1
    25   13   14 ar
    26   13   16 1
    27   14   15 ar
    28   14   29 1
    29   15   30 1
    30   17   31 1
    31   17   32 1
    32   17   33 1
    33   18   19 2
    34   18   20 1
@<TRIPOS>MOLECULE
ZINC57992095
   64    66     0     0     0
SMALL
USER_CHARGES

@<TRIPOS>ATOM
      1 C1          0.1014    0.8186    0.2723 C.3       1 <0>        -0.1206
      2 C2          0.1980   -0.6808    0.1561 C.ar      1 <0>        -0.0706
      3 C3          0.2012   -1.2786   -1.0903 C.ar      1 <0>        -0.1249
      4 C4          0.2897   -2.6540   -1.1970 C.ar      1 <0>        -0.0980
      5 C5          0.3756   -3.4315   -0.0572 C.ar      1 <0>        -0.1255
      6 C6          0.3733   -2.8336    1.1891 C.ar      1 <0>        -0.0835
      7 C7          0.2890   -1.4579    1.2957 C.ar      1 <0>        -0.1213
      8 C8          0.4711   -4.9310   -0.1735 C.3       1 <0>         0.1728
      9 N1          1.8797   -5.3258   -0.2528 N.pl3     1 <0>        -0.3573
     10 C9          2.6062   -5.4528   -1.3829 C.2       1 <0>         0.0988
     11 C10         3.8558   -5.8329   -1.0294 C.2       1 <0>        -0.2487
     12 C11         3.8943   -5.9421    0.3645 C.2       1 <0>         0.0953
     13 N2          2.7119   -5.6325    0.8315 N.2       1 <0>        -0.2886
     14 C12         5.0926   -6.3407    1.1869 C.3       1 <0>        -0.0707
     15 C13         5.0031   -6.0936   -1.9711 C.3       1 <0>         0.1451
     16 N3          5.7540   -4.8491   -2.1843 N.3       1 <0>        -0.6714
     17 C14         6.8851   -5.0659   -3.1015 C.3       1 <0>         0.0791
     18 C15         6.4019   -4.8992   -4.5434 C.3       1 <0>        -0.1624
     19 C16         7.5685   -5.1095   -5.5081 C.3       1 <0>         0.0607
     20 N4          8.6999   -4.2490   -5.1960 N.4       1 <0>        -0.4898
     21 C17         9.1235   -4.1673   -3.8072 C.3       1 <0>         0.0571
     22 C18         7.9612   -4.0149   -2.8318 C.3       1 <0>        -0.1193
     23 C19         9.9870   -5.3666   -3.4071 C.3       1 <0>        -0.1717
     24 C20        10.0094   -2.9066   -3.6655 C.3       1 <0>        -0.1799
     25 C21         7.0689   -4.7297   -6.9213 C.3       1 <0>        -0.1810
     26 C22         7.9618   -6.5857   -5.5482 C.3       1 <0>        -0.1713
     27 C23         2.1139   -5.2143   -2.7871 C.3       1 <0>        -0.0970
     28 H1          1.1029    1.2488    0.2653 H         1 <0>         0.0728
     29 H2         -0.4690    1.2123   -0.5689 H         1 <0>         0.0693
     30 H3         -0.3995    1.0793    1.2047 H         1 <0>         0.0705
     31 H4          0.1341   -0.6711   -1.9808 H         1 <0>         0.1241
     32 H5          0.2915   -3.1211   -2.1707 H         1 <0>         0.1195
     33 H6          0.4400   -3.4411    2.0796 H         1 <0>         0.1257
     34 H7          0.2910   -0.9906    2.2693 H         1 <0>         0.1263
     35 H8          0.0129   -5.3931    0.7009 H         1 <0>         0.1059
     36 H9         -0.0495   -5.2596   -1.0729 H         1 <0>         0.1011
     37 H10         5.6618   -5.4505    1.4547 H         1 <0>         0.0776
     38 H11         4.7593   -6.8452    2.0938 H         1 <0>         0.0720
     39 H12         5.7233   -7.0145    0.6071 H         1 <0>         0.0732
     40 H13         5.6628   -6.8467   -1.5404 H         1 <0>         0.0814
     41 H14         4.6159   -6.4523   -2.9249 H         1 <0>         0.0353
     42 H15         5.1495   -4.1155   -2.5228 H         1 <0>         0.3460
     43 H16         7.2812   -6.0651   -2.9443 H         1 <0>         0.0960
     44 H17         5.6214   -5.6330   -4.7517 H         1 <0>         0.1060
     45 H18         5.9949   -3.8958   -4.6771 H         1 <0>         0.0898
     46 H19         9.4984   -4.5512   -5.7595 H         1 <0>         0.4236
     47 H20         7.5264   -3.0174   -2.9380 H         1 <0>         0.0875
     48 H21         8.3280   -4.1273   -1.8082 H         1 <0>         0.1157
     49 H22        10.8140   -5.4694   -4.1096 H         1 <0>         0.0792
     50 H23        10.3807   -5.2118   -2.4025 H         1 <0>         0.1051
     51 H24         9.3810   -6.2725   -3.4242 H         1 <0>         0.0812
     52 H25         9.4319   -2.0240   -3.9404 H         1 <0>         0.0800
     53 H26        10.3462   -2.8133   -2.6331 H         1 <0>         0.1068
     54 H27        10.8741   -2.9943   -4.3233 H         1 <0>         0.0813
     55 H28         6.7510   -3.6871   -6.9262 H         1 <0>         0.0802
     56 H29         7.8759   -4.8669   -7.6410 H         1 <0>         0.0821
     57 H30         6.2276   -5.3673   -7.1928 H         1 <0>         0.1045
     58 H31         7.1481   -7.1668   -5.9822 H         1 <0>         0.1030
     59 H32         8.8587   -6.7064   -6.1556 H         1 <0>         0.0807
     60 H33         8.1590   -6.9368   -4.5353 H         1 <0>         0.0832
     61 H34         2.2757   -4.1706   -3.0565 H         1 <0>         0.0795
     62 H35         2.6602   -5.8567   -3.4777 H         1 <0>         0.0804
     63 H36         1.0496   -5.4432   -2.8428 H         1 <0>         0.0745
     64 H37         8.4837   -3.3038   -5.5225 H         1 <0>         0.4235
@<TRIPOS>BOND
     1    1    2 1
     2    1   28 1
     3    1   29 1
     4    1   30 1
     5    2    7 ar
     6    2    3 ar
     7    3    4 ar
     8    3   31 1
     9    4    5 ar
    10    4   32 1
    11    5    6 ar
    12    5    8 1
    13    6    7 ar
    14    6   33 1
    15    7   34 1
    16    8    9 1
    17    8   35 1
    18    8   36 1
    19    9   13 1
    20    9   10 1
    21   10   11 2
    22   10   27 1
    23   11   12 1
    24   11   15 1
    25   12   13 2
    26   12   14 1
    27   14   37 1
    28   14   38 1
    29   14   39 1
    30   15   16 1
    31   15   40 1
    32   15   41 1
    33   16   17 1
    34   16   42 1
    35   17   22 1
    36   17   18 1
    37   17   43 1
    38   18   19 1
    39   18   44 1
    40   18   45 1
    41   19   20 1
    42   19   25 1
    43   19   26 1
    44   20   21 1
    45   20   46 1
    46   20   64 1
    47   21   22 1
    48   21   23 1
    49   21   24 1
    50   22   47 1
    51   22   48 1
    52   23   49 1
    53   23   50 1
    54   23   51 1
    55   24   52 1
    56   24   53 1
    57   24   54 1
    58   25   55 1
    59   25   56 1
    60   25   57 1
    61   26   58 1
    62   26   59 1
    63   26   60 1
    64   27   61 1
    65   27   62 1
    66   27   63 1
@<TRIPOS>MOLECULE
ZINC55472741
   45    47     0     0     0
SMALL
USER_CHARGES

@<TRIPOS>ATOM
      1 C1         -0.6167    1.5067   -2.1653 C.3       1 <0>        -0.1751
      2 C2         -0.6037   -0.0002   -2.1694 C.2       1 <0>         0.5165
      3 O1         -1.1366   -0.6088   -3.0731 O.2       1 <0>        -0.5204
      4 N1          0.0001   -0.6716   -1.1688 N.am      1 <0>        -0.6805
      5 C3         -0.0708   -2.0682   -1.1208 C.ar      1 <0>         0.1879
      6 C4         -0.1517   -2.7192    0.1032 C.ar      1 <0>        -0.1462
      7 C5         -0.2215   -4.0979    0.1472 C.ar      1 <0>        -0.0685
      8 C6         -0.2108   -4.8300   -1.0259 C.ar      1 <0>        -0.1898
      9 C7         -0.1298   -4.1848   -2.2463 C.ar      1 <0>        -0.0689
     10 C8         -0.0660   -2.8061   -2.2973 C.ar      1 <0>        -0.1235
     11 C9         -0.2871   -6.3341   -0.9742 C.3       1 <0>         0.0493
     12 N2         -1.6941   -6.7547   -1.0126 N.4       1 <0>        -0.5123
     13 C10        -1.7684   -8.2210   -0.9622 C.3       1 <0>         0.0939
     14 C11        -3.2118   -8.6524   -1.0016 C.2       1 <0>        -0.1138
     15 C12        -3.9209   -8.9221   -2.1149 C.2       1 <0>        -0.1287
     16 C13        -5.2178   -9.2860   -1.7003 C.2       1 <0>        -0.1999
     17 C14        -5.2285   -9.2175   -0.3425 C.2       1 <0>         0.0903
     18 O2         -4.0032   -8.8375    0.0677 O.3       1 <0>        -0.1616
     19 C15        -6.3823   -9.5146    0.5318 C.ar      1 <0>        -0.0322
     20 C16        -7.5993   -9.9121   -0.0247 C.ar      1 <0>        -0.0792
     21 C17        -8.6726  -10.1879    0.7966 C.ar      1 <0>        -0.0858
     22 C18        -8.5449  -10.0709    2.1702 C.ar      1 <0>        -0.0729
     23 C19        -7.3405   -9.6772    2.7282 C.ar      1 <0>        -0.0885
     24 C20        -6.2581   -9.4045    1.9178 C.ar      1 <0>        -0.0873
     25 Br1       -10.0217  -10.4498    3.2888 Br        1 <0>        -0.0270
     26 H1         -1.5023    1.8610   -1.6379 H         1 <0>         0.1040
     27 H2          0.2774    1.8764   -1.6633 H         1 <0>         0.0879
     28 H3         -0.6345    1.8727   -3.1919 H         1 <0>         0.1040
     29 H4          0.4837   -0.1866   -0.4820 H         1 <0>         0.4199
     30 H5         -0.1598   -2.1480    1.0197 H         1 <0>         0.1391
     31 H6         -0.2841   -4.6048    1.0988 H         1 <0>         0.1360
     32 H7         -0.1213   -4.7594   -3.1607 H         1 <0>         0.1357
     33 H8         -0.0080   -2.3025   -3.2510 H         1 <0>         0.1509
     34 H9          0.2412   -6.7543   -1.8301 H         1 <0>         0.1404
     35 H10         0.1735   -6.6898   -0.0526 H         1 <0>         0.1396
     36 H11        -2.1831   -6.3657   -0.2204 H         1 <0>         0.4292
     37 H12        -1.2401   -8.6412   -1.8180 H         1 <0>         0.1596
     38 H13        -1.3078   -8.5767   -0.0405 H         1 <0>         0.1473
     39 H14        -3.5633   -8.8691   -3.1326 H         1 <0>         0.1657
     40 H15        -6.0436   -9.5650   -2.3379 H         1 <0>         0.1661
     41 H16        -7.7004  -10.0030   -1.0961 H         1 <0>         0.1418
     42 H17        -9.6147  -10.4955    0.3673 H         1 <0>         0.1468
     43 H18        -7.2471   -9.5877    3.8004 H         1 <0>         0.1437
     44 H19        -5.3177   -9.1021    2.3545 H         1 <0>         0.1375
     45 H20        -2.1204   -6.4254   -1.8658 H         1 <0>         0.4292
@<TRIPOS>BOND
     1    1    2 1
     2    1   26 1
     3    1   27 1
     4    1   28 1
     5    2    3 2
     6    2    4 am
     7    4    5 1
     8    4   29 1
     9    5   10 ar
    10    5    6 ar
    11    6    7 ar
    12    6   30 1
    13    7    8 ar
    14    7   31 1
    15    8    9 ar
    16    8   11 1
    17    9   10 ar
    18    9   32 1
    19   10   33 1
    20   11   12 1
    21   11   34 1
    22   11   35 1
    23   12   13 1
    24   12   36 1
    25   12   45 1
    26   13   14 1
    27   13   37 1
    28   13   38 1
    29   14   18 1
    30   14   15 2
    31   15   16 1
    32   15   39 1
    33   16   17 2
    34   16   40 1
    35   17   18 1
    36   17   19 1
    37   19   24 ar
    38   19   20 ar
    39   20   21 ar
    40   20   41 1
    41   21   22 ar
    42   21   42 1
    43   22   23 ar
    44   22   25 1
    45   23   24 ar
    46   23   43 1
    47   24   44 1
@<TRIPOS>MOLECULE
ZINC03011892
   45    48     0     0     0
SMALL
USER_CHARGES

@<TRIPOS>ATOM
      1 C1          0.0081    1.3599    0.0334 C.ar      1 <0>        -0.0871
      2 C2          1.1973    2.0642    0.0249 C.ar      1 <0>        -0.1068
      3 C3          2.4028    1.3857    0.0008 C.ar      1 <0>        -0.0256
      4 C4          2.4170    0.0023   -0.0148 C.ar      1 <0>        -0.1067
      5 C5          1.2272   -0.7009   -0.0063 C.ar      1 <0>        -0.0908
      6 C6          0.0230   -0.0224    0.0178 C.ar      1 <0>        -0.1012
      7 C7         -1.2739   -0.7897    0.0275 C.3       1 <0>         0.2021
      8 H1         -2.0850   -0.1420   -0.3051 H         1 <0>         0.0926
      9 C8         -1.5645   -1.2915    1.4463 C.3       1 <0>        -0.1520
     10 C9         -2.9161   -2.0139    1.4779 C.3       1 <0>         0.1288
     11 H2         -3.7202   -1.2901    1.3447 H         1 <0>         0.1370
     12 N1         -2.9546   -2.9960    0.3906 N.pl3     1 <0>        -0.3919
     13 C10        -2.1285   -2.9555   -0.6968 C.2       1 <0>         0.3681
     14 C11        -2.4290   -4.0016   -1.4914 C.2       1 <0>        -0.2597
     15 C12        -3.4814   -4.7167   -0.8759 C.2       1 <0>         0.0644
     16 N2         -3.7898   -4.1039    0.2537 N.2       1 <0>        -0.2494
     17 C13        -4.1250   -5.9368   -1.4038 C.2       1 <0>         0.6077
     18 O1         -3.7543   -6.4113   -2.4600 O.2       1 <0>        -0.4950
     19 N3         -5.1234   -6.5241   -0.7146 N.am      1 <0>        -0.6583
     20 C14        -5.7976   -7.6216   -1.2592 C.ar      1 <0>         0.1724
     21 C15        -7.1572   -7.7868   -1.0293 C.ar      1 <0>        -0.1300
     22 C16        -7.8213   -8.8723   -1.5691 C.ar      1 <0>        -0.0049
     23 C17        -7.1326   -9.7940   -2.3380 C.ar      1 <0>        -0.1157
     24 C18        -5.7777   -9.6320   -2.5682 C.ar      1 <0>        -0.0050
     25 C19        -5.1099   -8.5452   -2.0355 C.ar      1 <0>        -0.1093
     26 Cl1        -4.9173  -10.7909   -3.5329 Cl        1 <0>        -0.0476
     27 Cl2        -9.5207   -9.0798   -1.2818 Cl        1 <0>        -0.0490
     28 N4         -1.1679   -1.9540   -0.8739 N.pl3     1 <0>        -0.7247
     29 C20        -3.0851   -2.7262    2.8214 C.3       1 <0>         0.4560
     30 F1         -3.0355   -1.7867    3.8568 F         1 <0>        -0.1709
     31 F2         -4.3191   -3.3848    2.8480 F         1 <0>        -0.1603
     32 F3         -2.0553   -3.6584    2.9878 F         1 <0>        -0.1718
     33 Cl3         3.8968    2.2696   -0.0105 Cl        1 <0>        -0.0604
     34 H3         -0.9328    1.8894    0.0567 H         1 <0>         0.1379
     35 H4          1.1855    3.1441    0.0367 H         1 <0>         0.1395
     36 H5          3.3577   -0.5280   -0.0339 H         1 <0>         0.1384
     37 H6          1.2382   -1.7808   -0.0188 H         1 <0>         0.1353
     38 H7         -0.7784   -1.9806    1.7547 H         1 <0>         0.1018
     39 H8         -1.5908   -0.4442    2.1316 H         1 <0>         0.1236
     40 H9         -1.9525   -4.2485   -2.4286 H         1 <0>         0.1656
     41 H10        -5.3742   -6.1855    0.1591 H         1 <0>         0.4237
     42 H11        -7.6951   -7.0680   -0.4290 H         1 <0>         0.1457
     43 H12        -7.6533  -10.6414   -2.7588 H         1 <0>         0.1473
     44 H13        -4.0534   -8.4169   -2.2192 H         1 <0>         0.1585
     45 H14        -0.4718   -2.0215   -1.5460 H         1 <0>         0.4277
@<TRIPOS>BOND
     1    1    6 ar
     2    1    2 ar
     3    1   34 1
     4    2    3 ar
     5    2   35 1
     6    3    4 ar
     7    3   33 1
     8    4    5 ar
     9    4   36 1
    10    5    6 ar
    11    5   37 1
    12    6    7 1
    13    7    8 1
    14    7   28 1
    15    7    9 1
    16    9   10 1
    17    9   38 1
    18    9   39 1
    19   10   11 1
    20   10   12 1
    21   10   29 1
    22   12   16 1
    23   12   13 1
    24   13   14 2
    25   13   28 1
    26   14   15 1
    27   14   40 1
    28   15   16 2
    29   15   17 1
    30   17   18 2
    31   17   19 am
    32   19   20 1
    33   19   41 1
    34   20   25 ar
    35   20   21 ar
    36   21   22 ar
    37   21   42 1
    38   22   23 ar
    39   22   27 1
    40   23   24 ar
    41   23   43 1
    42   24   25 ar
    43   24   26 1
    44   25   44 1
    45   28   45 1
    46   29   30 1
    47   29   31 1
    48   29   32 1
@<TRIPOS>MOLECULE
ZINC39610426
   56    59     0     0     0
SMALL
USER_CHARGES

@<TRIPOS>ATOM
      1 C1         -4.6552    0.9297    1.5624 C.ar      1 <0>        -0.0699
      2 C2         -5.2123    2.1085    2.0219 C.ar      1 <0>        -0.1434
      3 C3         -4.5446    3.3068    1.8384 C.ar      1 <0>         0.1250
      4 C4         -3.3178    3.3233    1.1939 C.ar      1 <0>        -0.0762
      5 C5         -2.7629    2.1427    0.7353 C.ar      1 <0>        -0.0614
      6 C6         -3.4316    0.9468    0.9197 C.ar      1 <0>        -0.1163
      7 C7         -2.8260   -0.3393    0.4196 C.3       1 <0>         0.1630
      8 N1         -3.2690   -0.5856   -0.9550 N.am      1 <0>        -0.7282
      9 C8         -2.8504   -1.6860   -1.6110 C.2       1 <0>         0.5128
     10 O1         -2.1070   -2.4724   -1.0633 O.2       1 <0>        -0.5066
     11 C9         -3.3061   -1.9393   -3.0249 C.3       1 <0>        -0.1139
     12 H1         -3.5338   -0.9974   -3.5240 H         1 <0>         0.1181
     13 C10        -2.2234   -2.7151   -3.8082 C.3       1 <0>         0.1221
     14 N2         -2.6224   -4.1374   -3.6895 N.am      1 <0>        -0.6140
     15 C11        -4.0997   -4.1174   -3.8133 C.3       1 <0>         0.0960
     16 C12        -4.5369   -2.8613   -3.0338 C.3       1 <0>        -0.0720
     17 C13        -5.7031   -2.1792   -3.7424 C.3       1 <0>        -0.1349
     18 C14        -6.9321   -3.0910   -3.6872 C.3       1 <0>        -0.0102
     19 N3         -7.2773   -3.3659   -2.2872 N.4       1 <0>        -0.5051
     20 C15        -6.1872   -4.1048   -1.6386 C.3       1 <0>        -0.0095
     21 C16        -4.9268   -3.2358   -1.6071 C.3       1 <0>        -0.1485
     22 C17        -1.8229   -5.2074   -3.5099 C.2       1 <0>         0.5824
     23 O2         -0.6308   -5.0519   -3.3290 O.2       1 <0>        -0.4832
     24 C18        -2.3950   -6.5690   -3.5330 C.ar      1 <0>        -0.1244
     25 C19        -3.4559   -6.8695   -4.3902 C.ar      1 <0>        -0.0751
     26 C20        -3.9857   -8.1419   -4.4072 C.ar      1 <0>        -0.1159
     27 C21        -3.4686   -9.1227   -3.5760 C.ar      1 <0>        -0.0014
     28 C22        -2.4176   -8.8324   -2.7233 C.ar      1 <0>        -0.1068
     29 C23        -1.8734   -7.5634   -2.7013 C.ar      1 <0>         0.0221
     30 Cl1        -0.5501   -7.2023   -1.6373 Cl        1 <0>        -0.0136
     31 Cl2        -4.1425  -10.7224   -3.6037 Cl        1 <0>        -0.0370
     32 Cl3        -2.4785    4.8252    0.9620 Cl        1 <0>        -0.0327
     33 F1         -5.0884    4.4594    2.2867 F         1 <0>        -0.1186
     34 H2         -5.1744   -0.0058    1.7096 H         1 <0>         0.1383
     35 H3         -6.1686    2.0944    2.5236 H         1 <0>         0.1497
     36 H4         -1.8070    2.1548    0.2327 H         1 <0>         0.1473
     37 H5         -1.7390   -0.2622    0.4427 H         1 <0>         0.0860
     38 H6         -3.1454   -1.1635    1.0574 H         1 <0>         0.0842
     39 H7         -3.8635    0.0434   -1.3930 H         1 <0>         0.4011
     40 H8         -2.2177   -2.4081   -4.8540 H         1 <0>         0.0905
     41 H9         -1.2428   -2.5568   -3.3593 H         1 <0>         0.1030
     42 H10        -4.3926   -4.0355   -4.8600 H         1 <0>         0.0896
     43 H11        -4.5311   -5.0127   -3.3656 H         1 <0>         0.0873
     44 H12        -5.9281   -1.2349   -3.2466 H         1 <0>         0.0988
     45 H13        -5.4367   -1.9902   -4.7823 H         1 <0>         0.1233
     46 H14        -7.7716   -2.5990   -4.1782 H         1 <0>         0.1410
     47 H15        -6.7118   -4.0285   -4.1977 H         1 <0>         0.1325
     48 H16        -7.4265   -2.4942   -1.8015 H         1 <0>         0.4284
     49 H17        -6.4777   -4.3602   -0.6195 H         1 <0>         0.1392
     50 H18        -5.9847   -5.0182   -2.1978 H         1 <0>         0.1323
     51 H19        -4.1131   -3.7918   -1.1415 H         1 <0>         0.1251
     52 H20        -5.1238   -2.3298   -1.0340 H         1 <0>         0.0969
     53 H21        -3.8606   -6.1063   -5.0382 H         1 <0>         0.1444
     54 H22        -4.8060   -8.3749   -5.0698 H         1 <0>         0.1484
     55 H23        -2.0195   -9.6009   -2.0773 H         1 <0>         0.1556
     56 H24        -8.1222   -3.9163   -2.2523 H         1 <0>         0.4345
@<TRIPOS>BOND
     1    1    6 ar
     2    1    2 ar
     3    1   34 1
     4    2    3 ar
     5    2   35 1
     6    3    4 ar
     7    3   33 1
     8    4    5 ar
     9    4   32 1
    10    5    6 ar
    11    5   36 1
    12    6    7 1
    13    7    8 1
    14    7   37 1
    15    7   38 1
    16    8    9 am
    17    8   39 1
    18    9   10 2
    19    9   11 1
    20   11   12 1
    21   11   16 1
    22   11   13 1
    23   13   14 1
    24   13   40 1
    25   13   41 1
    26   14   15 1
    27   14   22 am
    28   15   16 1
    29   15   42 1
    30   15   43 1
    31   16   21 1
    32   16   17 1
    33   17   18 1
    34   17   44 1
    35   17   45 1
    36   18   19 1
    37   18   46 1
    38   18   47 1
    39   19   20 1
    40   19   48 1
    41   19   56 1
    42   20   21 1
    43   20   49 1
    44   20   50 1
    45   21   51 1
    46   21   52 1
    47   22   23 2
    48   22   24 1
    49   24   29 ar
    50   24   25 ar
    51   25   26 ar
    52   25   53 1
    53   26   27 ar
    54   26   54 1
    55   27   28 ar
    56   27   31 1
    57   28   29 ar
    58   28   55 1
    59   29   30 1
@<TRIPOS>MOLECULE
ZINC39666960
   65    68     0     0     0
SMALL
USER_CHARGES

@<TRIPOS>ATOM
      1 C1         -3.1716    1.4748   -2.2939 C.3       1 <0>        -0.1209
      2 C2         -3.1523   -0.0321   -2.3032 C.ar      1 <0>        -0.0741
      3 C3         -4.3309   -0.7394   -2.1550 C.ar      1 <0>        -0.1252
      4 C4         -4.3132   -2.1214   -2.1635 C.ar      1 <0>        -0.1059
      5 C5         -3.1169   -2.7965   -2.3207 C.ar      1 <0>        -0.1001
      6 C6         -1.9387   -2.0893   -2.4697 C.ar      1 <0>        -0.0720
      7 C7         -1.9570   -0.7069   -2.4655 C.ar      1 <0>        -0.1187
      8 C8         -0.6347   -2.8252   -2.6405 C.3       1 <0>        -0.1208
      9 C9         -3.0974   -4.3033   -2.3290 C.3       1 <0>        -0.0863
     10 C10        -2.7821   -4.8171   -0.9227 C.3       1 <0>         0.1235
     11 N1         -2.7632   -6.2819   -0.9308 N.am      1 <0>        -0.7325
     12 C11        -2.5046   -6.9588    0.2056 C.2       1 <0>         0.5082
     13 O1         -2.2876   -6.3552    1.2350 O.2       1 <0>        -0.4973
     14 C12        -2.4852   -8.4656    0.1974 C.3       1 <0>        -0.1132
     15 H1         -2.1243   -8.8345   -0.7628 H         1 <0>         0.1174
     16 C13        -1.5994   -8.9985    1.3458 C.3       1 <0>         0.1160
     17 N2         -2.5451   -9.2652    2.4551 N.am      1 <0>        -0.6072
     18 C14        -3.7410   -9.8366    1.7908 C.3       1 <0>         0.1085
     19 C15        -3.8890   -9.0209    0.4910 C.3       1 <0>        -0.0728
     20 C16        -4.3495   -9.9235   -0.6495 C.3       1 <0>        -0.1331
     21 C17        -5.7706  -10.4164   -0.3625 C.3       1 <0>        -0.0103
     22 N3         -6.6719   -9.2657   -0.2278 N.4       1 <0>        -0.5042
     23 C18        -6.2769   -8.4530    0.9290 C.3       1 <0>        -0.0097
     24 C19        -4.8773   -7.8769    0.6965 C.3       1 <0>        -0.1463
     25 C20        -2.3596   -9.0397    3.7709 C.2       1 <0>         0.6051
     26 O2         -3.2385   -9.3148    4.5645 O.2       1 <0>        -0.5090
     27 C21        -1.0888   -8.4583    4.2485 C.ar      1 <0>        -0.1199
     28 C22        -0.9471   -7.0722    4.3558 C.ar      1 <0>         0.0125
     29 C23         0.2441   -6.5361    4.8037 C.ar      1 <0>        -0.1090
     30 C24         1.2957   -7.3674    5.1453 C.ar      1 <0>        -0.0708
     31 C25         1.1632   -8.7405    5.0413 C.ar      1 <0>        -0.1087
     32 C26        -0.0239   -9.2918    4.6010 C.ar      1 <0>         0.0008
     33 Cl1        -0.1904  -11.0154    4.4787 Cl        1 <0>        -0.0435
     34 Cl2        -2.2650   -6.0269    3.9266 Cl        1 <0>        -0.0216
     35 H2         -3.3120    1.8426   -3.3103 H         1 <0>         0.0740
     36 H3         -3.9905    1.8238   -1.6649 H         1 <0>         0.0686
     37 H4         -2.2262    1.8478   -1.8999 H         1 <0>         0.0690
     38 H5         -5.2654   -0.2121   -2.0323 H         1 <0>         0.1228
     39 H6         -5.2338   -2.6740   -2.0471 H         1 <0>         0.1181
     40 H7         -1.0369   -0.1543   -2.5857 H         1 <0>         0.1244
     41 H8         -0.4516   -2.9986   -3.7009 H         1 <0>         0.0728
     42 H9          0.1767   -2.2279   -2.2247 H         1 <0>         0.0695
     43 H10        -0.6861   -3.7812   -2.1195 H         1 <0>         0.0665
     44 H11        -4.0720   -4.6776   -2.6424 H         1 <0>         0.0736
     45 H12        -2.3335   -4.6530   -3.0234 H         1 <0>         0.0812
     46 H13        -1.8075   -4.4428   -0.6093 H         1 <0>         0.0752
     47 H14        -3.5460   -4.4674   -0.2283 H         1 <0>         0.0700
     48 H15        -2.9367   -6.7647   -1.7540 H         1 <0>         0.3972
     49 H16        -1.0986   -9.9184    1.0439 H         1 <0>         0.0901
     50 H17        -0.8683   -8.2464    1.6422 H         1 <0>         0.0975
     51 H18        -3.5819  -10.8902    1.5615 H         1 <0>         0.0871
     52 H19        -4.6219   -9.7122    2.4206 H         1 <0>         0.0891
     53 H20        -4.3409   -9.3622   -1.5839 H         1 <0>         0.0977
     54 H21        -3.6776  -10.7778   -0.7314 H         1 <0>         0.1222
     55 H22        -6.1086  -11.0482   -1.1838 H         1 <0>         0.1401
     56 H23        -5.7753  -10.9916    0.5634 H         1 <0>         0.1330
     57 H24        -6.6246   -8.7033   -1.0642 H         1 <0>         0.4272
     58 H25        -6.9881   -7.6374    1.0596 H         1 <0>         0.1378
     59 H26        -6.2695   -9.0749    1.8241 H         1 <0>         0.1343
     60 H27        -4.5774   -7.2883    1.5635 H         1 <0>         0.1225
     61 H28        -4.8878   -7.2416   -0.1892 H         1 <0>         0.0971
     62 H29         0.3552   -5.4651    4.8872 H         1 <0>         0.1481
     63 H30         2.2250   -6.9423    5.4946 H         1 <0>         0.1507
     64 H31         1.9889   -9.3831    5.3092 H         1 <0>         0.1495
     65 H32        -7.6174   -9.5939   -0.0995 H         1 <0>         0.4342
@<TRIPOS>BOND
     1    1    2 1
     2    1   35 1
     3    1   36 1
     4    1   37 1
     5    2    7 ar
     6    2    3 ar
     7    3    4 ar
     8    3   38 1
     9    4    5 ar
    10    4   39 1
    11    5    6 ar
    12    5    9 1
    13    6    7 ar
    14    6    8 1
    15    7   40 1
    16    8   41 1
    17    8   42 1
    18    8   43 1
    19    9   10 1
    20    9   44 1
    21    9   45 1
    22   10   11 1
    23   10   46 1
    24   10   47 1
    25   11   12 am
    26   11   48 1
    27   12   13 2
    28   12   14 1
    29   14   15 1
    30   14   19 1
    31   14   16 1
    32   16   17 1
    33   16   49 1
    34   16   50 1
    35   17   18 1
    36   17   25 am
    37   18   19 1
    38   18   51 1
    39   18   52 1
    40   19   24 1
    41   19   20 1
    42   20   21 1
    43   20   53 1
    44   20   54 1
    45   21   22 1
    46   21   55 1
    47   21   56 1
    48   22   23 1
    49   22   57 1
    50   22   65 1
    51   23   24 1
    52   23   58 1
    53   23   59 1
    54   24   60 1
    55   24   61 1
    56   25   26 2
    57   25   27 1
    58   27   32 ar
    59   27   28 ar
    60   28   29 ar
    61   28   34 1
    62   29   30 ar
    63   29   62 1
    64   30   31 ar
    65   30   63 1
    66   31   32 ar
    67   31   64 1
    68   32   33 1
@<TRIPOS>MOLECULE
ZINC39683730
   59    62     0     0     0
SMALL
USER_CHARGES

@<TRIPOS>ATOM
      1 C1          0.3872    2.0131    5.1108 C.ar      1 <0>        -0.1004
      2 C2          0.2827    2.7845    3.9681 C.ar      1 <0>        -0.1088
      3 C3         -0.0047    2.1878    2.7552 C.ar      1 <0>        -0.0859
      4 C4         -0.1878    0.8183    2.6844 C.ar      1 <0>        -0.0879
      5 C5         -0.0831    0.0471    3.8276 C.ar      1 <0>        -0.0637
      6 C6          0.2043    0.6448    5.0405 C.ar      1 <0>        -0.1093
      7 C7         -0.2830   -1.4447    3.7512 C.3       1 <0>        -0.0979
      8 C8          1.0335   -2.1159    3.3547 C.3       1 <0>         0.1224
      9 N1          0.8393   -3.5661    3.2805 N.am      1 <0>        -0.7280
     10 C9          1.8698   -4.3678    2.9464 C.2       1 <0>         0.5141
     11 O1          2.9581   -3.8887    2.7072 O.2       1 <0>        -0.5118
     12 C10         1.6700   -5.8596    2.8700 C.3       1 <0>        -0.1152
     13 H1          0.6450   -6.0900    2.5794 H         1 <0>         0.1202
     14 C11         2.6667   -6.4853    1.8687 C.3       1 <0>         0.1011
     15 N2          3.8063   -6.9316    2.7042 N.am      1 <0>        -0.6127
     16 C12         3.1740   -7.4749    3.9302 C.3       1 <0>         0.1097
     17 C13         2.0038   -6.5144    4.2209 C.3       1 <0>        -0.0736
     18 C14         0.7995   -7.2919    4.7432 C.3       1 <0>        -0.1335
     19 C15         1.1360   -7.8850    6.1142 C.3       1 <0>        -0.0104
     20 N3          1.4871   -6.8048    7.0440 N.4       1 <0>        -0.5043
     21 C16         2.7014   -6.1216    6.5821 C.3       1 <0>        -0.0093
     22 C17         2.4311   -5.4538    5.2309 C.3       1 <0>        -0.1470
     23 C18         5.1207   -6.8601    2.4147 C.2       1 <0>         0.5972
     24 O2          5.9366   -7.3567    3.1668 O.2       1 <0>        -0.5117
     25 C19         5.5698   -6.1785    1.1838 C.ar      1 <0>        -0.1555
     26 C20         4.7985   -6.2486    0.0217 C.ar      1 <0>        -0.0584
     27 C21         5.2236   -5.6092   -1.1246 C.ar      1 <0>        -0.0543
     28 C22         6.4129   -4.8982   -1.1256 C.ar      1 <0>        -0.0506
     29 C23         7.1823   -4.8236    0.0199 C.ar      1 <0>        -0.1428
     30 C24         6.7662   -5.4551    1.1781 C.ar      1 <0>         0.1647
     31 F1          7.5161   -5.3771    2.2991 F         1 <0>        -0.1143
     32 Cl1         4.2659   -5.6962   -2.5699 Cl        1 <0>        -0.0461
     33 Br1        -0.5816    0.0013    1.0251 Br        1 <0>        -0.0425
     34 H2          0.6161    2.4792    6.0577 H         1 <0>         0.1326
     35 H3          0.4253    3.8536    4.0236 H         1 <0>         0.1360
     36 H4         -0.0866    2.7905    1.8628 H         1 <0>         0.1367
     37 H5          0.2864    0.0426    5.9332 H         1 <0>         0.1291
     38 H6         -0.6030   -1.8187    4.7238 H         1 <0>         0.0819
     39 H7         -1.0453   -1.6714    3.0059 H         1 <0>         0.0906
     40 H8          1.3536   -1.7419    2.3822 H         1 <0>         0.0790
     41 H9          1.7959   -1.8892    4.1000 H         1 <0>         0.0718
     42 H10        -0.0311   -3.9493    3.4717 H         1 <0>         0.3997
     43 H11         2.2117   -7.3357    1.3609 H         1 <0>         0.0952
     44 H12         2.9955   -5.7403    1.1441 H         1 <0>         0.1064
     45 H13         2.8016   -8.4835    3.7511 H         1 <0>         0.0884
     46 H14         3.8836   -7.4717    4.7576 H         1 <0>         0.0898
     47 H15        -0.0542   -6.6207    4.8367 H         1 <0>         0.0984
     48 H16         0.5564   -8.0960    4.0486 H         1 <0>         0.1229
     49 H17         0.2715   -8.4272    6.4974 H         1 <0>         0.1407
     50 H18         1.9793   -8.5688    6.0170 H         1 <0>         0.1333
     51 H19         0.7272   -6.1426    7.0906 H         1 <0>         0.4274
     52 H20         2.9909   -5.3638    7.3102 H         1 <0>         0.1387
     53 H21         3.5074   -6.8473    6.4737 H         1 <0>         0.1346
     54 H22         3.3383   -4.9619    4.8802 H         1 <0>         0.1226
     55 H23         1.6363   -4.7161    5.3421 H         1 <0>         0.0966
     56 H24         3.8714   -6.8026    0.0202 H         1 <0>         0.1483
     57 H25         6.7404   -4.4002   -2.0262 H         1 <0>         0.1538
     58 H26         8.1083   -4.2680    0.0119 H         1 <0>         0.1575
     59 H27         1.6490   -7.1920    7.9616 H         1 <0>         0.4346
@<TRIPOS>BOND
     1    1    6 ar
     2    1    2 ar
     3    1   34 1
     4    2    3 ar
     5    2   35 1
     6    3    4 ar
     7    3   36 1
     8    4    5 ar
     9    4   33 1
    10    5    6 ar
    11    5    7 1
    12    6   37 1
    13    7    8 1
    14    7   38 1
    15    7   39 1
    16    8    9 1
    17    8   40 1
    18    8   41 1
    19    9   10 am
    20    9   42 1
    21   10   11 2
    22   10   12 1
    23   12   13 1
    24   12   17 1
    25   12   14 1
    26   14   15 1
    27   14   43 1
    28   14   44 1
    29   15   16 1
    30   15   23 am
    31   16   17 1
    32   16   45 1
    33   16   46 1
    34   17   22 1
    35   17   18 1
    36   18   19 1
    37   18   47 1
    38   18   48 1
    39   19   20 1
    40   19   49 1
    41   19   50 1
    42   20   21 1
    43   20   51 1
    44   20   59 1
    45   21   22 1
    46   21   52 1
    47   21   53 1
    48   22   54 1
    49   22   55 1
    50   23   24 2
    51   23   25 1
    52   25   30 ar
    53   25   26 ar
    54   26   27 ar
    55   26   56 1
    56   27   28 ar
    57   27   32 1
    58   28   29 ar
    59   28   57 1
    60   29   30 ar
    61   29   58 1
    62   30   31 1
@<TRIPOS>MOLECULE
ZINC39948867
   75    80     0     0     0
SMALL
USER_CHARGES

@<TRIPOS>ATOM
      1 C1         -0.0187    1.5258    0.0104 C.3       1 <0>        -0.1562
      2 C2          0.0021   -0.0041    0.0020 C.3       1 <0>        -0.1252
      3 C3          0.7182   -0.4975   -1.2568 C.3       1 <0>        -0.1192
      4 C4          0.7390   -2.0273   -1.2652 C.3       1 <0>        -0.1182
      5 C5          1.4551   -2.5207   -2.5240 C.3       1 <0>        -0.1574
      6 C6          1.4758   -4.0506   -2.5324 C.3       1 <0>         0.1402
      7 N1          2.1616   -4.5230   -3.7377 N.pl3     1 <0>        -0.6341
      8 C7          1.5468   -4.8119   -5.0438 C.3       1 <0>         0.3692
      9 H1          0.8099   -5.6096   -4.9503 H         1 <0>         0.1365
     10 N2          2.6730   -5.2474   -5.8862 N.pl3     1 <0>        -0.5844
     11 N3          3.8162   -5.1942   -5.0803 N.2       1 <0>        -0.1735
     12 C8          3.5280   -4.7818   -3.8743 C.2       1 <0>         0.2560
     13 C9          4.4701   -4.6220   -2.8465 C.2       1 <0>         0.1341
     14 C10         5.8437   -4.8562   -2.9174 C.ar      1 <0>        -0.1432
     15 C11         6.6827   -5.2974   -3.9628 C.ar      1 <0>        -0.0106
     16 C12         8.0153   -5.4387   -3.7429 C.ar      1 <0>        -0.1499
     17 C13         8.5852   -5.1571   -2.4995 C.ar      1 <0>         0.0471
     18 C14         7.8392   -4.7298   -1.4510 C.ar      1 <0>        -0.2051
     19 C15         6.4393   -4.5579   -1.6048 C.ar      1 <0>         0.3141
     20 N4          5.5108   -4.1614   -0.7564 N.pl3     1 <0>        -0.5994
     21 C16         4.2096   -4.1536   -1.4318 C.3       1 <0>         0.0746
     22 S1          0.7790   -3.3177   -5.7281 S.3       1 <0>        -0.1595
     23 C17         2.1559   -2.1465   -5.8790 C.3       1 <0>        -0.1254
     24 C18         1.6485   -0.8447   -6.4437 C.2       1 <0>         0.5297
     25 O1          0.4736   -0.7194   -6.7175 O.2       1 <0>        -0.5029
     26 N5          2.5003    0.1803   -6.6446 N.am      1 <0>        -0.7191
     27 C19         2.0070    1.4458   -7.1936 C.3       1 <0>         0.1856
     28 C20         1.3941    1.1987   -8.5735 C.3       1 <0>        -0.1211
     29 C21         0.8789    2.5204   -9.1468 C.3       1 <0>        -0.0829
     30 C22         2.0403    3.5083   -9.2741 C.3       1 <0>        -0.1128
     31 C23         2.6532    3.7554   -7.8942 C.3       1 <0>        -0.0807
     32 C24         3.1684    2.4337   -7.3208 C.3       1 <0>        -0.1136
     33 C25         1.5895    4.3363   -6.9603 C.3       1 <0>        -0.1123
     34 C26         0.4281    3.3484   -6.8330 C.3       1 <0>        -0.0826
     35 C27        -0.1847    3.1013   -8.2130 C.3       1 <0>        -0.1107
     36 C28         0.9433    2.0267   -6.2597 C.3       1 <0>        -0.1186
     37 H2          1.0039    1.9031    0.0027 H         1 <0>         0.0521
     38 H3         -0.5459    1.8868   -0.8726 H         1 <0>         0.0556
     39 H4         -0.5289    1.8773    0.9072 H         1 <0>         0.0572
     40 H5          0.5293   -0.3651    0.8851 H         1 <0>         0.0597
     41 H6         -1.0205   -0.3814    0.0098 H         1 <0>         0.0642
     42 H7          0.1910   -0.1364   -2.1398 H         1 <0>         0.0660
     43 H8          1.7408   -0.1202   -1.2645 H         1 <0>         0.0574
     44 H9          1.2661   -2.3884   -0.3821 H         1 <0>         0.0612
     45 H10        -0.2836   -2.4046   -1.2575 H         1 <0>         0.0740
     46 H11         0.9279   -2.1597   -3.4071 H         1 <0>         0.0951
     47 H12         2.4777   -2.1435   -2.5317 H         1 <0>         0.0556
     48 H13         2.0030   -4.4117   -1.6494 H         1 <0>         0.0796
     49 H14         0.4533   -4.4279   -2.5247 H         1 <0>         0.1041
     50 H15         2.6309   -5.5185   -6.8166 H         1 <0>         0.4673
     51 H16         6.2665   -5.5222   -4.9337 H         1 <0>         0.1606
     52 H17         8.6495   -5.7773   -4.5489 H         1 <0>         0.1556
     53 H18         9.6498   -5.2835   -2.3693 H         1 <0>         0.1605
     54 H19         8.3093   -4.5209   -0.5014 H         1 <0>         0.1604
     55 H20         3.7949   -3.1456   -1.4406 H         1 <0>         0.1715
     56 H21         3.5249   -4.8374   -0.9302 H         1 <0>         0.1731
     57 H22         2.5926   -1.9704   -4.8959 H         1 <0>         0.1035
     58 H23         2.9137   -2.5603   -6.5443 H         1 <0>         0.1070
     59 H24         3.4399    0.0801   -6.4257 H         1 <0>         0.3971
     60 H25         2.1519    0.7849   -9.2388 H         1 <0>         0.0591
     61 H26         0.5667    0.4949   -8.4828 H         1 <0>         0.0847
     62 H27         0.4423    2.3443  -10.1299 H         1 <0>         0.0747
     63 H28         2.7981    3.0944   -9.9394 H         1 <0>         0.0630
     64 H29         1.6733    4.4498   -9.6825 H         1 <0>         0.0680
     65 H30         3.4806    4.4592   -7.9848 H         1 <0>         0.0770
     66 H31         3.6050    2.6098   -6.3377 H         1 <0>         0.0669
     67 H32         3.9261    2.0199   -7.9861 H         1 <0>         0.0681
     68 H33         2.0262    4.5123   -5.9772 H         1 <0>         0.0620
     69 H34         1.2225    5.2778   -7.3688 H         1 <0>         0.0679
     70 H35        -0.3296    3.7622   -6.1677 H         1 <0>         0.0740
     71 H36        -0.5518    4.0428   -8.6214 H         1 <0>         0.0657
     72 H37        -1.0121    2.3975   -8.1223 H         1 <0>         0.0653
     73 H38         0.1159    1.3229   -6.1690 H         1 <0>         0.0844
     74 H39         1.3800    2.2028   -5.2766 H         1 <0>         0.0575
     75 H40         5.6651   -3.9103    0.1677 H         1 <0>         0.4547
@<TRIPOS>BOND
     1    1    2 1
     2    1   37 1
     3    1   38 1
     4    1   39 1
     5    2    3 1
     6    2   40 1
     7    2   41 1
     8    3    4 1
     9    3   42 1
    10    3   43 1
    11    4    5 1
    12    4   44 1
    13    4   45 1
    14    5    6 1
    15    5   46 1
    16    5   47 1
    17    6    7 1
    18    6   48 1
    19    6   49 1
    20    7   12 1
    21    7    8 1
    22    8    9 1
    23    8   10 1
    24    8   22 1
    25   10   11 1
    26   10   50 1
    27   11   12 2
    28   12   13 1
    29   13   21 1
    30   13   14 2
    31   14   19 ar
    32   14   15 ar
    33   15   16 ar
    34   15   51 1
    35   16   17 ar
    36   16   52 1
    37   17   18 ar
    38   17   53 1
    39   18   19 ar
    40   18   54 1
    41   19   20 2
    42   20   21 1
    43   20   75 1
    44   21   55 1
    45   21   56 1
    46   22   23 1
    47   23   24 1
    48   23   57 1
    49   23   58 1
    50   24   25 2
    51   24   26 am
    52   26   27 1
    53   26   59 1
    54   27   32 1
    55   27   36 1
    56   27   28 1
    57   28   29 1
    58   28   60 1
    59   28   61 1
    60   29   35 1
    61   29   30 1
    62   29   62 1
    63   30   31 1
    64   30   63 1
    65   30   64 1
    66   31   32 1
    67   31   33 1
    68   31   65 1
    69   32   66 1
    70   32   67 1
    71   33   34 1
    72   33   68 1
    73   33   69 1
    74   34   35 1
    75   34   36 1
    76   34   70 1
    77   35   71 1
    78   35   72 1
    79   36   73 1
    80   36   74 1
@<TRIPOS>MOLECULE
ZINC38751603
   61    66     0     0     0
SMALL
USER_CHARGES

@<TRIPOS>ATOM
      1 C1         -0.6305   -0.2982   -0.3828 C.ar      1 <0>        -0.0967
      2 C2          0.3343    0.6917   -0.3740 C.ar      1 <0>        -0.1210
      3 C3          1.6541    0.3682   -0.1200 C.ar      1 <0>        -0.1140
      4 C4          2.0089   -0.9450    0.1258 C.ar      1 <0>        -0.0927
      5 C5          1.0439   -1.9348    0.1179 C.ar      1 <0>        -0.0955
      6 C6         -0.2756   -1.6115   -0.1376 C.ar      1 <0>        -0.0991
      7 C7          3.4478   -1.2977    0.4018 C.3       1 <0>        -0.0713
      8 H1          4.0750   -0.4220    0.2350 H         1 <0>         0.1241
      9 C8          3.8790   -2.4076   -0.5220 C.2       1 <0>         0.4132
     10 O1          3.8270   -3.5622   -0.1495 O.2       1 <0>        -0.3555
     11 C9          4.3432   -2.1052   -1.8197 C.2       1 <0>        -0.0550
     12 C10         4.7679   -2.9994   -2.7858 C.ar      1 <0>        -0.0530
     13 C11         4.8775   -4.4098   -2.8100 C.ar      1 <0>        -0.0645
     14 C12         5.3359   -5.0388   -3.9153 C.ar      1 <0>        -0.1016
     15 C13         5.7196   -4.3438   -5.0734 C.ar      1 <0>         0.0357
     16 C14         5.6541   -2.9973   -5.1537 C.ar      1 <0>        -0.1840
     17 C15         5.1650   -2.2343   -3.9932 C.ar      1 <0>         0.3211
     18 N1          5.0016   -0.9569   -3.7986 N.pl3     1 <0>        -0.5445
     19 C16         4.4745   -0.7353   -2.4484 C.3       1 <0>         0.0698
     20 S1          3.6170   -1.8438    2.1233 S.3       1 <0>        -0.1851
     21 C17         3.8190   -0.3007    3.0553 C.3       1 <0>         0.3886
     22 H2          4.1505   -0.5102    4.0723 H         1 <0>         0.1386
     23 N2          4.7725    0.5924    2.3752 N.pl3     1 <0>        -0.6192
     24 N3          4.0610    1.7531    2.0494 N.2       1 <0>        -0.2329
     25 C18         2.8295    1.6785    2.4358 C.2       1 <0>         0.2898
     26 N4          2.5596    0.4625    3.0696 N.pl3     1 <0>        -0.5682
     27 C19         1.3388    0.0503    3.6085 C.ar      1 <0>         0.1347
     28 C20         0.7194   -1.0984    3.1315 C.ar      1 <0>        -0.1141
     29 C21        -0.4873   -1.5033    3.6669 C.ar      1 <0>        -0.1011
     30 C22        -1.0795   -0.7669    4.6767 C.ar      1 <0>        -0.1020
     31 C23        -0.4659    0.3769    5.1539 C.ar      1 <0>        -0.1056
     32 C24         0.7436    0.7848    4.6267 C.ar      1 <0>        -0.1315
     33 C25         1.8301    2.7481    2.2339 C.ar      1 <0>         0.1100
     34 C26         0.4586    2.4750    2.3083 C.ar      1 <0>        -0.1187
     35 C27        -0.4391    3.5033    2.1133 C.ar      1 <0>         0.1413
     36 N5         -0.0211    4.7291    1.8599 N.ar      1 <0>        -0.4413
     37 C28         1.2615    5.0297    1.7812 C.ar      1 <0>         0.1447
     38 C29         2.2280    4.0643    1.9686 C.ar      1 <0>        -0.1023
     39 H3         -1.6623   -0.0449   -0.5769 H         1 <0>         0.1326
     40 H4          0.0571    1.7177   -0.5660 H         1 <0>         0.1200
     41 H5          2.4080    1.1415   -0.1138 H         1 <0>         0.1166
     42 H6          1.3212   -2.9608    0.3095 H         1 <0>         0.1316
     43 H7         -1.0295   -2.3849   -0.1442 H         1 <0>         0.1362
     44 H8          4.5942   -4.9863   -1.9417 H         1 <0>         0.1695
     45 H9          5.4100   -6.1162   -3.9071 H         1 <0>         0.1649
     46 H10         6.0781   -4.9027   -5.9252 H         1 <0>         0.1729
     47 H11         5.9562   -2.4872   -6.0565 H         1 <0>         0.1738
     48 H12         3.4994   -0.2507   -2.4989 H         1 <0>         0.1790
     49 H13         5.1688   -0.1233   -1.8727 H         1 <0>         0.1788
     50 H14         5.7074    0.4122    2.1901 H         1 <0>         0.4635
     51 H15         1.1812   -1.6738    2.3427 H         1 <0>         0.1507
     52 H16        -0.9695   -2.3959    3.2964 H         1 <0>         0.1344
     53 H17        -2.0235   -1.0857    5.0934 H         1 <0>         0.1352
     54 H18        -0.9311    0.9496    5.9425 H         1 <0>         0.1354
     55 H19         1.2244    1.6756    5.0029 H         1 <0>         0.1234
     56 H20         0.1093    1.4741    2.5149 H         1 <0>         0.1920
     57 H21        -1.4989    3.3027    2.1683 H         1 <0>         0.2167
     58 H22         1.5583    6.0468    1.5717 H         1 <0>         0.2192
     59 H23         3.2759    4.3185    1.9077 H         1 <0>         0.1938
     60 H24         5.1945   -0.2615   -4.4467 H         1 <0>         0.4618
     61 H25        -0.6772    5.4311    1.7271 H         1 <0>         0.4570
@<TRIPOS>BOND
     1    1    6 ar
     2    1    2 ar
     3    1   39 1
     4    2    3 ar
     5    2   40 1
     6    3    4 ar
     7    3   41 1
     8    4    5 ar
     9    4    7 1
    10    5    6 ar
    11    5   42 1
    12    6   43 1
    13    7    8 1
    14    7    9 1
    15    7   20 1
    16    9   10 2
    17    9   11 1
    18   11   19 1
    19   11   12 2
    20   12   17 ar
    21   12   13 ar
    22   13   14 ar
    23   13   44 1
    24   14   15 ar
    25   14   45 1
    26   15   16 ar
    27   15   46 1
    28   16   17 ar
    29   16   47 1
    30   17   18 2
    31   18   19 1
    32   18   60 1
    33   19   48 1
    34   19   49 1
    35   20   21 1
    36   21   22 1
    37   21   26 1
    38   21   23 1
    39   23   24 1
    40   23   50 1
    41   24   25 2
    42   25   26 1
    43   25   33 1
    44   26   27 1
    45   27   32 ar
    46   27   28 ar
    47   28   29 ar
    48   28   51 1
    49   29   30 ar
    50   29   52 1
    51   30   31 ar
    52   30   53 1
    53   31   32 ar
    54   31   54 1
    55   32   55 1
    56   33   38 ar
    57   33   34 ar
    58   34   35 ar
    59   34   56 1
    60   35   36 ar
    61   35   57 1
    62   36   37 ar
    63   36   61 1
    64   37   38 ar
    65   37   58 1
    66   38   59 1
@<TRIPOS>MOLECULE
ZINC39422374
   59    63     0     0     0
SMALL
USER_CHARGES

@<TRIPOS>ATOM
      1 C1          7.1206   -0.7962    3.6159 C.ar      1 <0>        -0.0328
      2 C2          6.4998    0.0638    2.7246 C.ar      1 <0>        -0.1080
      3 C3          5.8645   -0.4343    1.6089 C.ar      1 <0>        -0.0499
      4 C4          5.8479   -1.8193    1.3760 C.ar      1 <0>        -0.2077
      5 C5          6.4808   -2.6824    2.2856 C.ar      1 <0>        -0.0685
      6 C6          7.1100   -2.1639    3.3954 C.ar      1 <0>        -0.1079
      7 C7          5.1964   -2.3427    0.2308 C.2       1 <0>         0.2021
      8 C8          5.9059   -3.0080   -0.7729 C.ar      1 <0>        -0.1350
      9 C9          7.3027   -3.1802   -0.6749 C.ar      1 <0>         0.0090
     10 C10         7.9693   -3.8324   -1.6664 C.ar      1 <0>        -0.0786
     11 C11         7.2991   -4.3354   -2.7803 C.ar      1 <0>         0.1060
     12 C12         5.9526   -4.1994   -2.9304 C.ar      1 <0>        -0.1874
     13 C13         5.1994   -3.5370   -1.9448 C.ar      1 <0>         0.3287
     14 N1          3.8769   -3.4054   -2.0938 N.am      1 <0>        -0.5888
     15 C14         3.1017   -2.7980   -1.2168 C.2       1 <0>         0.5110
     16 O1          1.9044   -2.7152   -1.4188 O.2       1 <0>        -0.3841
     17 C15         3.6972   -2.2113    0.0427 C.3       1 <0>         0.0002
     18 H1          3.4493   -1.1500    0.0624 H         1 <0>         0.2194
     19 N2          3.0411   -2.8436    1.1949 N.4       1 <0>        -0.3681
     20 C16         3.2785   -4.2916    1.1574 C.3       1 <0>        -0.0343
     21 C17         2.6662   -4.9450    2.3983 C.3       1 <0>        -0.1349
     22 C18         1.1592   -4.6736    2.4203 C.3       1 <0>        -0.1373
     23 C19         0.9222   -3.1611    2.3841 C.3       1 <0>        -0.1258
     24 H2          1.3445   -2.7050    3.2795 H         1 <0>         0.1291
     25 C20         1.5992   -2.5738    1.1438 C.3       1 <0>        -0.0173
     26 C21        -0.5582   -2.8848    2.3289 C.2       1 <0>         0.5224
     27 O2         -1.0438   -2.3762    1.3406 O.2       1 <0>        -0.5036
     28 N3         -1.3426   -3.2028    3.3777 N.am      1 <0>        -0.6547
     29 C22        -2.7015   -2.8675    3.3624 C.ar      1 <0>         0.1229
     30 C23        -3.3369   -2.4853    4.5365 C.ar      1 <0>        -0.1210
     31 C24        -4.6778   -2.1550    4.5187 C.ar      1 <0>        -0.0894
     32 C25        -5.3881   -2.2046    3.3321 C.ar      1 <0>        -0.0364
     33 C26        -4.7573   -2.5851    2.1606 C.ar      1 <0>        -0.0922
     34 C27        -3.4152   -2.9109    2.1720 C.ar      1 <0>        -0.1031
     35 Cl1        -7.0736   -1.7893    3.3132 Cl        1 <0>        -0.0497
     36 Cl2         9.6881   -4.0413   -1.5414 Cl        1 <0>         0.0201
     37 H3          7.6202   -0.3972    4.4863 H         1 <0>         0.1544
     38 H4          6.5137    1.1284    2.9056 H         1 <0>         0.1566
     39 H5          5.3805    0.2376    0.9156 H         1 <0>         0.1465
     40 H6          6.4733   -3.7489    2.1157 H         1 <0>         0.1446
     41 H7          7.5972   -2.8258    4.0961 H         1 <0>         0.1564
     42 H8          7.8393   -2.7971    0.1805 H         1 <0>         0.1845
     43 H9          7.8637   -4.8470   -3.5459 H         1 <0>         0.1902
     44 H10         5.4633   -4.6000   -3.8059 H         1 <0>         0.1925
     45 H11         2.8196   -4.7115    0.2624 H         1 <0>         0.1338
     46 H12         4.3514   -4.4830    1.1386 H         1 <0>         0.1317
     47 H13         2.8420   -6.0203    2.3676 H         1 <0>         0.1332
     48 H14         3.1246   -4.5259    3.2940 H         1 <0>         0.1032
     49 H15         0.6927   -5.1365    1.5507 H         1 <0>         0.0969
     50 H16         0.7274   -5.0885    3.3311 H         1 <0>         0.1138
     51 H17         1.4323   -1.4970    1.1149 H         1 <0>         0.1543
     52 H18         1.1761   -3.0303    0.2490 H         1 <0>         0.1696
     53 H19        -0.9655   -3.6641    4.1431 H         1 <0>         0.4158
     54 H20        -2.7830   -2.4468    5.4629 H         1 <0>         0.1379
     55 H21        -5.1725   -1.8581    5.4316 H         1 <0>         0.1451
     56 H22        -5.3140   -2.6233    1.2359 H         1 <0>         0.1422
     57 H23        -2.9223   -3.2035    1.2566 H         1 <0>         0.1443
     58 H24         3.4658   -3.7764   -2.8902 H         1 <0>         0.4575
     59 H25         3.4232   -2.4641    2.0482 H         1 <0>         0.4410
@<TRIPOS>BOND
     1    1    6 ar
     2    1    2 ar
     3    1   37 1
     4    2    3 ar
     5    2   38 1
     6    3    4 ar
     7    3   39 1
     8    4    5 ar
     9    4    7 1
    10    5    6 ar
    11    5   40 1
    12    6   41 1
    13    7   17 1
    14    7    8 2
    15    8   13 ar
    16    8    9 ar
    17    9   10 ar
    18    9   42 1
    19   10   11 ar
    20   10   36 1
    21   11   12 ar
    22   11   43 1
    23   12   13 ar
    24   12   44 1
    25   13   14 2
    26   14   15 am
    27   14   58 1
    28   15   16 2
    29   15   17 1
    30   17   18 1
    31   17   19 1
    32   19   25 1
    33   19   20 1
    34   19   59 1
    35   20   21 1
    36   20   45 1
    37   20   46 1
    38   21   22 1
    39   21   47 1
    40   21   48 1
    41   22   23 1
    42   22   49 1
    43   22   50 1
    44   23   24 1
    45   23   25 1
    46   23   26 1
    47   25   51 1
    48   25   52 1
    49   26   27 2
    50   26   28 am
    51   28   29 1
    52   28   53 1
    53   29   34 ar
    54   29   30 ar
    55   30   31 ar
    56   30   54 1
    57   31   32 ar
    58   31   55 1
    59   32   33 ar
    60   32   35 1
    61   33   34 ar
    62   33   56 1
    63   34   57 1
@<TRIPOS>MOLECULE
ZINC39711422
   79    83     0     0     0
SMALL
USER_CHARGES

@<TRIPOS>ATOM
      1 C1         -3.3228  -11.7691    0.8321 C.3       1 <0>        -0.1592
      2 C2         -2.4779  -11.1813    1.9642 C.3       1 <0>         0.0417
      3 O1         -1.6675  -10.1213    1.4528 O.3       1 <0>        -0.2908
      4 C3         -0.8510   -9.4876    2.3358 C.ar      1 <0>         0.1178
      5 C4         -0.8376   -9.8975    3.6744 C.ar      1 <0>         0.0199
      6 C5         -0.0483   -9.3113    4.6108 C.ar      1 <0>        -0.1841
      7 C6          0.8042   -8.2465    4.2638 C.ar      1 <0>         0.3177
      8 N1          1.5737   -7.6805    5.1937 N.am      1 <0>        -0.5565
      9 C7          2.3967   -6.6775    4.9376 C.2       1 <0>         0.3622
     10 O2          3.0751   -6.2017    5.8283 O.2       1 <0>        -0.3342
     11 C8          2.4915   -6.1248    3.5334 C.3       1 <0>        -0.3030
     12 H1          2.2447   -5.0639    3.5742 H         1 <0>         0.3183
     13 C9          1.6184   -6.7650    2.4720 C.2       1 <0>         0.0739
     14 C10         0.8122   -7.7926    2.8621 C.ar      1 <0>        -0.1360
     15 C11        -0.0576   -8.4700    1.9001 C.ar      1 <0>        -0.0913
     16 C12         3.9472   -6.2460    3.0785 C.3       1 <0>        -0.1427
     17 H2          4.0615   -5.7827    2.0985 H         1 <0>         0.3230
     18 C13         4.8568   -5.5397    4.0858 C.3       1 <0>         0.1265
     19 H3          5.9029   -5.6670    3.8071 H         1 <0>         0.1743
     20 N2          4.6206   -6.0567    5.4405 N.2       1 <0>        -0.2497
     21 N3          4.2287   -5.1333    6.1571 N.2       1 <0>         0.2086
     22 N4          4.1350   -3.9202    5.4759 N.pl3     1 <0>        -0.4868
     23 N5          4.5165   -4.1038    4.1697 N.3       1 <0>        -0.2496
     24 C14         3.4227   -3.7673    3.2486 C.3       1 <0>         0.0553
     25 C15         2.0839   -3.8963    3.9779 C.3       1 <0>        -0.2565
     26 C16         3.5972   -2.3304    2.7531 C.3       1 <0>        -0.1419
     27 C17         3.4479   -4.7249    2.0556 C.3       1 <0>        -0.3129
     28 N6          4.3177   -7.6651    2.9953 N.4       1 <0>        -0.3792
     29 C18         5.7599   -7.7787    2.7438 C.3       1 <0>        -0.0329
     30 C19         6.1673   -9.2556    2.7708 C.3       1 <0>         0.1209
     31 N7          5.3244   -9.9894    1.8142 N.pl3     1 <0>        -0.6641
     32 C20         3.8670   -9.8045    1.8903 C.3       1 <0>         0.1276
     33 C21         3.5682   -8.3017    1.9049 C.3       1 <0>        -0.0735
     34 C22         5.8918  -10.8380    0.8608 C.ar      1 <0>         0.1375
     35 C23         6.0928  -12.1808    1.1557 C.ar      1 <0>        -0.1186
     36 C24         6.6535  -13.0171    0.2108 C.ar      1 <0>        -0.1066
     37 C25         7.0154  -12.5193   -1.0279 C.ar      1 <0>        -0.1017
     38 C26         6.8172  -11.1835   -1.3244 C.ar      1 <0>        -0.0715
     39 C27         6.2511  -10.3427   -0.3860 C.ar      1 <0>        -0.0916
     40 C28         6.0294   -8.8883   -0.7124 C.3       1 <0>        -0.1100
     41 C29         7.2141  -10.6454   -2.6750 C.3       1 <0>        -0.1243
     42 H4         -2.6668  -12.1567    0.0527 H         1 <0>         0.0745
     43 H5         -3.9410  -12.5777    1.2221 H         1 <0>         0.0940
     44 H6         -3.9626  -10.9914    0.4148 H         1 <0>         0.0754
     45 H7         -3.1340  -10.7937    2.7436 H         1 <0>         0.0763
     46 H8         -1.8381  -11.9590    2.3814 H         1 <0>         0.0754
     47 H9         -1.4807  -10.7117    3.9741 H         1 <0>         0.1775
     48 H10        -0.0750   -9.6650    5.6308 H         1 <0>         0.1805
     49 H11         1.6352   -6.4213    1.4483 H         1 <0>         0.2136
     50 H12        -0.0732   -8.1658    0.8639 H         1 <0>         0.1845
     51 H13         3.8465   -3.0791    5.8634 H         1 <0>         0.4705
     52 H14         1.9043   -2.9984    4.5692 H         1 <0>         0.1256
     53 H15         1.2830   -4.0172    3.2485 H         1 <0>         0.1125
     54 H16         2.1106   -4.7651    4.6356 H         1 <0>         0.1107
     55 H17         4.5076   -2.2593    2.1579 H         1 <0>         0.0848
     56 H18         2.7400   -2.0506    2.1406 H         1 <0>         0.0855
     57 H19         3.6683   -1.6574    3.6076 H         1 <0>         0.0791
     58 H20         2.9841   -5.6699    2.3383 H         1 <0>         0.1473
     59 H21         2.8973   -4.2843    1.2244 H         1 <0>         0.1217
     60 H22         4.4802   -4.9026    1.7540 H         1 <0>         0.1362
     61 H23         5.9929   -7.3552    1.7668 H         1 <0>         0.1422
     62 H24         6.3071   -7.2366    3.5149 H         1 <0>         0.1423
     63 H25         7.2148   -9.3519    2.4850 H         1 <0>         0.1263
     64 H26         6.0195   -9.6580    3.7730 H         1 <0>         0.0799
     65 H27         3.3937  -10.2637    1.0225 H         1 <0>         0.1241
     66 H28         3.4869  -10.2623    2.8036 H         1 <0>         0.0710
     67 H29         2.5004   -8.1449    2.0579 H         1 <0>         0.1325
     68 H30         3.8675   -7.8624    0.9533 H         1 <0>         0.1510
     69 H31         5.8110  -12.5699    2.1229 H         1 <0>         0.1219
     70 H32         6.8100  -14.0610    0.4393 H         1 <0>         0.1310
     71 H33         7.4541  -13.1755   -1.7650 H         1 <0>         0.1314
     72 H34         6.9127   -8.3143   -0.4325 H         1 <0>         0.0704
     73 H35         5.8492   -8.7794   -1.7819 H         1 <0>         0.0760
     74 H36         5.1658   -8.5193   -0.1591 H         1 <0>         0.0494
     75 H37         6.3735  -10.7350   -3.3631 H         1 <0>         0.0764
     76 H38         7.4955   -9.5967   -2.5799 H         1 <0>         0.0697
     77 H39         8.0602  -11.2153   -3.0588 H         1 <0>         0.0749
     78 H40         1.5276   -8.0202    6.1011 H         1 <0>         0.4460
     79 H41         4.0938   -8.1215    3.8669 H         1 <0>         0.4016
@<TRIPOS>BOND
     1    1    2 1
     2    1   42 1
     3    1   43 1
     4    1   44 1
     5    2    3 1
     6    2   45 1
     7    2   46 1
     8    3    4 1
     9    4   15 ar
    10    4    5 ar
    11    5    6 ar
    12    5   47 1
    13    6    7 ar
    14    6   48 1
    15    7   14 ar
    16    7    8 2
    17    8    9 am
    18    8   78 1
    19    9   10 2
    20    9   11 1
    21   11   12 1
    22   11   13 1
    23   11   16 1
    24   13   14 2
    25   13   49 1
    26   14   15 ar
    27   15   50 1
    28   16   17 1
    29   16   18 1
    30   16   28 1
    31   18   19 1
    32   18   23 1
    33   18   20 1
    34   20   21 2
    35   21   22 1
    36   22   23 1
    37   22   51 1
    38   23   24 1
    39   24   25 1
    40   24   26 1
    41   24   27 1
    42   25   52 1
    43   25   53 1
    44   25   54 1
    45   26   55 1
    46   26   56 1
    47   26   57 1
    48   27   58 1
    49   27   59 1
    50   27   60 1
    51   28   33 1
    52   28   29 1
    53   28   79 1
    54   29   30 1
    55   29   61 1
    56   29   62 1
    57   30   31 1
    58   30   63 1
    59   30   64 1
    60   31   32 1
    61   31   34 1
    62   32   33 1
    63   32   65 1
    64   32   66 1
    65   33   67 1
    66   33   68 1
    67   34   39 ar
    68   34   35 ar
    69   35   36 ar
    70   35   69 1
    71   36   37 ar
    72   36   70 1
    73   37   38 ar
    74   37   71 1
    75   38   39 ar
    76   38   41 1
    77   39   40 1
    78   40   72 1
    79   40   73 1
    80   40   74 1
    81   41   75 1
    82   41   76 1
    83   41   77 1
@<TRIPOS>MOLECULE
ZINC63708344
   59    63     0     0     0
SMALL
USER_CHARGES

@<TRIPOS>ATOM
      1 C1         -0.0187    1.5258    0.0104 C.3       1 <0>        -0.1185
      2 C2          0.0021   -0.0041    0.0020 C.3       1 <0>        -0.0371
      3 H1          0.5196   -0.3763   -0.8821 H         1 <0>         0.1547
      4 C3         -1.4089   -0.5607    0.0725 C.2       1 <0>        -0.1865
      5 C4         -1.4233   -1.2567    1.2113 C.2       1 <0>         0.0188
      6 N1         -0.2223   -1.1934    1.8278 N.2       1 <0>        -0.1655
      7 N2          0.6287   -0.5233    1.2297 N.2       1 <0>        -0.1158
      8 C5         -2.6168   -2.0110    1.7382 C.3       1 <0>        -0.1010
      9 C6         -2.5323   -0.3709   -0.9140 C.3       1 <0>        -0.0448
     10 C7         -3.2646    0.9371   -0.6075 C.3       1 <0>        -0.1009
     11 C8         -4.3880    1.1269   -1.5940 C.cat     1 <0>         0.5168
     12 N3         -4.2889    1.7418   -2.7468 N.pl3     1 <0>        -0.5232
     13 C9         -5.4694    1.7343   -3.3773 C.2       1 <0>         0.4827
     14 C10        -5.8927    2.2487   -4.6192 C.ar      1 <0>        -0.2043
     15 C11        -4.9910    2.9265   -5.4573 C.ar      1 <0>        -0.0167
     16 C12        -5.4183    3.4162   -6.6538 C.ar      1 <0>        -0.1384
     17 C13        -6.7362    3.2641   -7.0771 C.ar      1 <0>         0.0610
     18 C14        -7.6590    2.6193   -6.3145 C.ar      1 <0>        -0.1986
     19 C15        -7.2811    2.0871   -5.0624 C.ar      1 <0>         0.3316
     20 N4         -8.1660    1.4541   -4.3044 N.pl3     1 <0>        -0.6387
     21 C16        -7.7504    0.9091   -3.0058 C.3       1 <0>         0.3722
     22 H2         -8.3875    1.3573   -2.2434 H         1 <0>         0.1831
     23 N5         -6.3633    1.0762   -2.5738 N.pl3     1 <0>        -0.3793
     24 N6         -5.6546    0.6845   -1.4313 N.pl3     1 <0>        -0.3529
     25 S1         -8.1042   -0.8699   -3.0226 S.3       1 <0>        -0.1311
     26 C17        -7.1132   -1.5014   -4.4046 C.3       1 <0>        -0.0519
     27 C18        -7.3179   -2.9891   -4.5310 C.ar      1 <0>        -0.1119
     28 C19        -6.4974   -3.8610   -3.8396 C.ar      1 <0>        -0.0665
     29 C20        -6.6851   -5.2254   -3.9555 C.ar      1 <0>        -0.1106
     30 C21        -7.6937   -5.7183   -4.7625 C.ar      1 <0>        -0.0419
     31 C22        -8.5146   -4.8467   -5.4529 C.ar      1 <0>        -0.1705
     32 C23        -8.3295   -3.4817   -5.3336 C.ar      1 <0>        -0.0413
     33 C24        -9.6137   -5.3840   -6.3329 C.3       1 <0>         0.5065
     34 F1         -9.6046   -6.7823   -6.2890 F         1 <0>        -0.1678
     35 F2        -10.8490   -4.9111   -5.8773 F         1 <0>        -0.1716
     36 F3         -9.4077   -4.9574   -7.6493 F         1 <0>        -0.1714
     37 H3          1.0039    1.9031    0.0027 H         1 <0>         0.0919
     38 H4         -0.5459    1.8868   -0.8726 H         1 <0>         0.0674
     39 H5         -0.5289    1.8773    0.9072 H         1 <0>         0.0682
     40 H6         -2.5990   -3.0318    1.3563 H         1 <0>         0.0918
     41 H7         -2.5827   -2.0300    2.8275 H         1 <0>         0.0943
     42 H8         -3.5319   -1.5169    1.4118 H         1 <0>         0.0691
     43 H9         -2.1257   -0.3315   -1.9245 H         1 <0>         0.1055
     44 H10        -3.2298   -1.2048   -0.8352 H         1 <0>         0.1046
     45 H11        -3.6712    0.8977    0.4030 H         1 <0>         0.1620
     46 H12        -2.5671    1.7710   -0.6863 H         1 <0>         0.1638
     47 H13        -3.9632    3.0588   -5.1533 H         1 <0>         0.1536
     48 H14        -4.7175    3.9359   -7.2904 H         1 <0>         0.1650
     49 H15        -7.0325    3.6682   -8.0337 H         1 <0>         0.1697
     50 H16        -8.6754    2.5148   -6.6645 H         1 <0>         0.1737
     51 H17        -6.0047    0.1940   -0.6712 H         1 <0>         0.5081
     52 H18        -7.4239   -1.0122   -5.3278 H         1 <0>         0.1115
     53 H19        -6.0591   -1.2940   -4.2204 H         1 <0>         0.0942
     54 H20        -5.7095   -3.4759   -3.2093 H         1 <0>         0.1293
     55 H21        -6.0436   -5.9065   -3.4160 H         1 <0>         0.1489
     56 H22        -7.8399   -6.7845   -4.8536 H         1 <0>         0.1537
     57 H23        -8.9734   -2.8006   -5.8702 H         1 <0>         0.1399
     58 H24        -9.0823    1.3520   -4.6058 H         1 <0>         0.4716
     59 H25        -3.4773    2.1447   -3.0930 H         1 <0>         0.4933
@<TRIPOS>BOND
     1    1    2 1
     2    1   37 1
     3    1   38 1
     4    1   39 1
     5    2    3 1
     6    2    7 1
     7    2    4 1
     8    4    5 2
     9    4    9 1
    10    5    6 1
    11    5    8 1
    12    6    7 2
    13    8   40 1
    14    8   41 1
    15    8   42 1
    16    9   10 1
    17    9   43 1
    18    9   44 1
    19   10   11 1
    20   10   45 1
    21   10   46 1
    22   11   24 1
    23   11   12 2
    24   12   13 1
    25   12   59 1
    26   13   23 1
    27   13   14 2
    28   14   19 ar
    29   14   15 ar
    30   15   16 ar
    31   15   47 1
    32   16   17 ar
    33   16   48 1
    34   17   18 ar
    35   17   49 1
    36   18   19 ar
    37   18   50 1
    38   19   20 2
    39   20   21 1
    40   20   58 1
    41   21   22 1
    42   21   23 1
    43   21   25 1
    44   23   24 1
    45   24   51 1
    46   25   26 1
    47   26   27 1
    48   26   52 1
    49   26   53 1
    50   27   32 ar
    51   27   28 ar
    52   28   29 ar
    53   28   54 1
    54   29   30 ar
    55   29   55 1
    56   30   31 ar
    57   30   56 1
    58   31   32 ar
    59   31   33 1
    60   32   57 1
    61   33   34 1
    62   33   35 1
    63   33   36 1
@<TRIPOS>MOLECULE
ZINC64604199
   52    55     0     0     0
SMALL
USER_CHARGES

@<TRIPOS>ATOM
      1 C1          0.0009    1.5427    0.0405 C.3       1 <0>        -0.1621
      2 C2          0.0126    0.0358    0.0330 C.ar      1 <0>         0.0882
      3 C3          0.0061   -0.6332   -1.2038 C.ar      1 <0>         0.0356
      4 C4          0.0152   -1.9776   -1.3030 C.ar      1 <0>        -0.1321
      5 C5          0.0332   -2.7945   -0.0818 C.ar      1 <0>         0.3184
      6 N1          0.0444   -4.0800    0.1230 N.pl3     1 <0>        -0.4665
      7 C6          0.0598   -4.2945    1.5755 C.3       1 <0>         0.2255
      8 H1         -0.8268   -4.8501    1.8811 H         1 <0>         0.2688
      9 N2          0.0561   -2.9614    2.1910 N.pl3     1 <0>        -0.4801
     10 C7          0.0406   -2.0864    1.2275 C.ar      1 <0>         0.3126
     11 C8          0.0344   -0.6170    1.2123 C.ar      1 <0>        -0.1635
     12 S1          1.5570   -5.1992    2.0554 S.3       1 <0>         0.0558
     13 C9          2.9129   -4.1418    1.4775 C.3       1 <0>        -0.0600
     14 C10         4.2322   -4.7858    1.8177 C.2       1 <0>         0.2324
     15 N3          4.9159   -4.6055    2.9533 N.2       1 <0>        -0.5391
     16 C11         6.0153   -5.3065    2.9302 C.2       1 <0>         0.3327
     17 O1          6.0688   -5.9642    1.7651 O.3       1 <0>        -0.0651
     18 N4          4.8897   -5.6127    1.0565 N.2       1 <0>        -0.3012
     19 C12         7.0480   -5.3661    4.0261 C.3       1 <0>        -0.0344
     20 C13         6.7003   -6.4994    4.9934 C.3       1 <0>        -0.1368
     21 C14         7.7330   -6.5590    6.0894 C.2       1 <0>         0.5176
     22 O2          8.6562   -5.7724    6.0961 O.2       1 <0>        -0.5089
     23 N5          7.6306   -7.4863    7.0620 N.am      1 <0>        -0.6676
     24 C15         8.6396   -7.6050    8.0247 C.ar      1 <0>         0.1504
     25 C16         8.9782   -8.8548    8.5271 C.ar      1 <0>        -0.1421
     26 C17         9.9744   -8.9691    9.4765 C.ar      1 <0>        -0.0655
     27 C18        10.6349   -7.8399    9.9276 C.ar      1 <0>        -0.1047
     28 C19        10.2997   -6.5938    9.4288 C.ar      1 <0>        -0.0354
     29 C20         9.3079   -6.4743    8.4749 C.ar      1 <0>        -0.1161
     30 C21        11.0212   -5.3663    9.9225 C.3       1 <0>        -0.1283
     31 Br1        11.9978   -8.0002   11.2286 Br        1 <0>        -0.0359
     32 H2          1.0257    1.9141    0.0278 H         1 <0>         0.1327
     33 H3         -0.5283    1.9063   -0.8403 H         1 <0>         0.1154
     34 H4         -0.5030    1.8977    0.9395 H         1 <0>         0.1122
     35 H5         -0.0071   -0.0465   -2.1105 H         1 <0>         0.2056
     36 H6          0.0090   -2.4511   -2.2737 H         1 <0>         0.2098
     37 H7          0.0432   -0.0638    2.1398 H         1 <0>         0.2059
     38 H8          2.8389   -4.0138    0.3975 H         1 <0>         0.1314
     39 H9          2.8475   -3.1686    1.9640 H         1 <0>         0.1392
     40 H10         8.0302   -5.5489    3.5903 H         1 <0>         0.1285
     41 H11         7.0604   -4.4190    4.5655 H         1 <0>         0.1347
     42 H12         5.7181   -6.3166    5.4292 H         1 <0>         0.1092
     43 H13         6.6879   -7.4465    4.4540 H         1 <0>         0.1109
     44 H14         6.8577   -8.0714    7.0949 H         1 <0>         0.4145
     45 H15         8.4625   -9.7364    8.1759 H         1 <0>         0.1353
     46 H16        10.2381   -9.9407    9.8675 H         1 <0>         0.1409
     47 H17         9.0496   -5.5018    8.0826 H         1 <0>         0.1466
     48 H18        11.8936   -5.1810    9.2958 H         1 <0>         0.0827
     49 H19        10.3513   -4.5077    9.8759 H         1 <0>         0.0731
     50 H20        11.3406   -5.5224   10.9529 H         1 <0>         0.0811
     51 H21         0.0426   -4.7697   -0.5589 H         1 <0>         0.4989
     52 H22         0.0637   -2.7682    3.1416 H         1 <0>         0.4986
@<TRIPOS>BOND
     1    1    2 1
     2    1   32 1
     3    1   33 1
     4    1   34 1
     5    2   11 ar
     6    2    3 ar
     7    3    4 ar
     8    3   35 1
     9    4    5 ar
    10    4   36 1
    11    5   10 ar
    12    5    6 2
    13    6    7 1
    14    6   51 1
    15    7    8 1
    16    7    9 1
    17    7   12 1
    18    9   10 2
    19    9   52 1
    20   10   11 ar
    21   11   37 1
    22   12   13 1
    23   13   14 1
    24   13   38 1
    25   13   39 1
    26   14   18 2
    27   14   15 1
    28   15   16 2
    29   16   17 1
    30   16   19 1
    31   17   18 1
    32   19   20 1
    33   19   40 1
    34   19   41 1
    35   20   21 1
    36   20   42 1
    37   20   43 1
    38   21   22 2
    39   21   23 am
    40   23   24 1
    41   23   44 1
    42   24   29 ar
    43   24   25 ar
    44   25   26 ar
    45   25   45 1
    46   26   27 ar
    47   26   46 1
    48   27   28 ar
    49   27   31 1
    50   28   29 ar
    51   28   30 1
    52   29   47 1
    53   30   48 1
    54   30   49 1
    55   30   50 1
@<TRIPOS>MOLECULE
ZINC09159951
   57    62     0     0     0
SMALL
USER_CHARGES
N-(4-chloro-3-nitro-phenyl)-dioxo-phenyl-BLAHcarboxamide
@<TRIPOS>ATOM
      1 C1         -9.8303    5.0553   -0.0956 C.ar      1 <0>        -0.1081
      2 C2         -9.3110    5.4779   -1.3055 C.ar      1 <0>        -0.0994
      3 C3         -7.9835    5.2450   -1.6079 C.ar      1 <0>        -0.1344
      4 C4         -7.1704    4.5863   -0.6956 C.ar      1 <0>         0.0958
      5 C5         -7.6960    4.1585    0.5160 C.ar      1 <0>        -0.1272
      6 C6         -9.0227    4.3994    0.8152 C.ar      1 <0>        -0.0953
      7 N1         -5.8226    4.3485   -0.9998 N.am      1 <0>        -0.5047
      8 C7         -4.9558    3.8341   -0.1146 C.2       1 <0>         0.5183
      9 O1         -5.1808    3.6289    1.0588 O.2       1 <0>        -0.4136
     10 C8         -3.6483    3.5519   -0.8271 C.3       1 <0>        -0.1278
     11 H1         -3.4949    2.4904   -1.0210 H         1 <0>         0.1885
     12 C9         -2.4882    4.1833   -0.0556 C.3       1 <0>         0.0954
     13 H2         -2.8021    4.4180    0.9615 H         1 <0>         0.1428
     14 C10        -1.2793    3.2842   -0.0256 C.ar      1 <0>        -0.0795
     15 C11        -1.4146    1.9163    0.0365 C.ar      1 <0>        -0.0975
     16 C12        -0.2893    1.1099    0.0629 C.ar      1 <0>        -0.0762
     17 C13         0.9739    1.6734    0.0167 C.ar      1 <0>        -0.0992
     18 C14         1.1229    3.0431   -0.0500 C.ar      1 <0>        -0.0650
     19 C15        -0.0062    3.8642   -0.0714 C.ar      1 <0>        -0.0968
     20 C16         0.1442    5.3319   -0.1371 C.2       1 <0>         0.0073
     21 C17        -0.9113    6.0894   -0.4940 C.2       1 <0>        -0.0848
     22 C18        -3.1083    5.7347   -1.7621 C.3       1 <0>         0.0356
     23 H3         -2.6405    6.1792   -2.6405 H         1 <0>         0.2117
     24 C19        -3.7886    4.4049   -2.1215 C.3       1 <0>        -0.1182
     25 H4         -3.3706    3.9277   -3.0079 H         1 <0>         0.1931
     26 C20        -5.2886    4.6163   -2.2006 C.2       1 <0>         0.5194
     27 O2         -5.9023    4.9683   -3.1850 O.2       1 <0>        -0.4215
     28 C21        -4.1338    6.6767   -1.1860 C.2       1 <0>         0.4683
     29 O3         -4.2421    6.7937    0.0164 O.2       1 <0>        -0.4751
     30 N2         -4.9307    7.3893   -2.0068 N.am      1 <0>        -0.6222
     31 C22        -5.8062    8.3443   -1.4770 C.ar      1 <0>         0.1192
     32 C23        -7.0411    8.5627   -2.0738 C.ar      1 <0>        -0.0591
     33 C24        -7.9054    9.5013   -1.5457 C.ar      1 <0>        -0.0854
     34 C25        -7.5373   10.2322   -0.4295 C.ar      1 <0>         0.0167
     35 C26        -6.3053   10.0205    0.1636 C.ar      1 <0>        -0.0214
     36 C27        -5.4394    9.0787   -0.3573 C.ar      1 <0>        -0.0415
     37 N3         -5.9151   10.8035    1.3575 N.pl3     1 <0>         0.0222
     38 O4         -4.8308   10.6173    1.8802 O.2       1 <0>        -0.1541
     39 O5         -6.6782   11.6340    1.8172 O.3       1 <0>        -0.1155
     40 Cl1        -8.6235   11.4161    0.2280 Cl        1 <0>         0.0199
     41 H5        -10.8686    5.2382    0.1385 H         1 <0>         0.1349
     42 H6         -9.9440    5.9902   -2.0148 H         1 <0>         0.1366
     43 H7         -7.5785    5.5752   -2.5530 H         1 <0>         0.1495
     44 H8         -7.0669    3.6419    1.2258 H         1 <0>         0.1524
     45 H9         -9.4311    4.0705    1.7594 H         1 <0>         0.1375
     46 H10        -2.3983    1.4717    0.0688 H         1 <0>         0.1402
     47 H11        -0.3978    0.0367    0.1154 H         1 <0>         0.1457
     48 H12         1.8469    1.0379    0.0325 H         1 <0>         0.1449
     49 H13         2.1102    3.4792   -0.0860 H         1 <0>         0.1461
     50 H14         1.0917    5.7937    0.0984 H         1 <0>         0.1877
     51 H15        -0.8389    7.1643   -0.5699 H         1 <0>         0.1997
     52 H16        -4.8974    7.2404   -2.9647 H         1 <0>         0.4364
     53 H17        -7.3270    7.9959   -2.9475 H         1 <0>         0.1620
     54 H18        -8.8678    9.6682   -2.0066 H         1 <0>         0.1724
     55 H19        -4.4777    8.9141    0.1058 H         1 <0>         0.1676
     56 N4         -2.3284    5.5392   -0.5124 N.4       1 <0>        -0.3709
     57 H20        -2.8172    6.1061    0.1904 H         1 <0>         0.4269
@<TRIPOS>BOND
     1    1    6 ar
     2    1    2 ar
     3    1   41 1
     4    2    3 ar
     5    2   42 1
     6    3    4 ar
     7    3   43 1
     8    4    5 ar
     9    4    7 1
    10    5    6 ar
    11    5   44 1
    12    6   45 1
    13    7   26 am
    14    7    8 am
    15    8    9 2
    16    8   10 1
    17   10   11 1
    18   10   24 1
    19   10   12 1
    20   12   13 1
    21   12   14 1
    22   12   56 1
    23   14   19 ar
    24   14   15 ar
    25   15   16 ar
    26   15   46 1
    27   16   17 ar
    28   16   47 1
    29   17   18 ar
    30   17   48 1
    31   18   19 ar
    32   18   49 1
    33   19   20 1
    34   20   21 2
    35   20   50 1
    36   21   51 1
    37   21   56 1
    38   22   23 1
    39   22   24 1
    40   22   28 1
    41   22   56 1
    42   24   25 1
    43   24   26 1
    44   26   27 2
    45   28   29 2
    46   28   30 am
    47   30   31 1
    48   30   52 1
    49   31   36 ar
    50   31   32 ar
    51   32   33 ar
    52   32   53 1
    53   33   34 ar
    54   33   54 1
    55   34   35 ar
    56   34   40 1
    57   35   36 ar
    58   35   37 1
    59   36   55 1
    60   37   38 2
    61   37   39 1
    62   56   57 1
@<TRIPOS>MOLECULE
ZINC06409953
   74    78     0     0     0
SMALL
USER_CHARGES
3-[(R)-[benzyl-[(4-methoxyphenyl)methyl]amino]-(1-tert-butyltetrazol-5-yl)methyl]-7-methyl-1H-quinolin-2-one
@<TRIPOS>ATOM
      1 C1          9.5448    1.2392    4.9645 C.3       1 <0>        -0.1330
      2 C2          8.8558    0.5249    3.8305 C.ar      1 <0>         0.0045
      3 C3          8.9519   -0.8565    3.7294 C.ar      1 <0>        -0.1440
      4 C4          8.3350   -1.5234    2.7093 C.ar      1 <0>        -0.0373
      5 C5          7.5999   -0.8084    1.7579 C.ar      1 <0>        -0.1624
      6 C6          6.9266   -1.4912    0.6515 C.2       1 <0>         0.0623
      7 C7          6.2288   -0.7461   -0.2409 C.2       1 <0>        -0.2755
      8 C8          6.1649    0.6568   -0.0995 C.2       1 <0>         0.5450
      9 O1          5.5363    1.3081   -0.9157 O.2       1 <0>        -0.5166
     10 N1          6.7754    1.2921    0.9161 N.am      1 <0>        -0.6151
     11 H1          6.7078    2.2572    0.9859 H         1 <0>         0.4287
     12 C9          7.5003    0.5921    1.8570 C.ar      1 <0>         0.2089
     13 C10         8.1375    1.2496    2.9044 C.ar      1 <0>        -0.1702
     14 C11         5.5241   -1.4176   -1.3913 C.3       1 <0>         0.2013
     15 H2          5.5849   -2.4994   -1.2730 H         1 <0>         0.1636
     16 C12         6.1817   -1.0161   -2.6865 C.2       1 <0>         0.1156
     17 N2          6.2023    0.1832   -3.2148 N.2       1 <0>        -0.2413
     18 N3          6.8626    0.1202   -4.3193 N.2       1 <0>        -0.0601
     19 N4          7.2570   -1.0899   -4.5132 N.2       1 <0>        -0.0539
     20 N5          6.8568   -1.8207   -3.5282 N.pl3     1 <0>        -0.2735
     21 C13         7.0932   -3.2564   -3.3576 C.3       1 <0>         0.1524
     22 C14         5.7530   -3.9940   -3.3283 C.3       1 <0>        -0.1730
     23 C15         7.9362   -3.7765   -4.5237 C.3       1 <0>        -0.1551
     24 C16         7.8372   -3.4981   -2.0427 C.3       1 <0>        -0.1732
     25 C17         3.4092   -1.4877   -0.2144 C.3       1 <0>         0.0361
     26 C18         3.4998   -2.9906   -0.1500 C.ar      1 <0>        -0.1486
     27 C19         4.4715   -3.5917    0.6280 C.ar      1 <0>        -0.1098
     28 C20         4.5546   -4.9703    0.6871 C.ar      1 <0>        -0.1079
     29 C21         3.6659   -5.7477   -0.0317 C.ar      1 <0>        -0.0847
     30 C22         2.6939   -5.1466   -0.8093 C.ar      1 <0>        -0.1043
     31 C23         2.6108   -3.7680   -0.8685 C.ar      1 <0>        -0.1114
     32 C24         3.4474   -1.4647   -2.6353 C.3       1 <0>         0.0388
     33 C25         2.1670   -0.6940   -2.8296 C.ar      1 <0>        -0.1983
     34 C26         1.0131   -1.0990   -2.1844 C.ar      1 <0>        -0.0646
     35 C27        -0.1606   -0.3909   -2.3564 C.ar      1 <0>        -0.2062
     36 C28        -0.1834    0.7207   -3.1861 C.ar      1 <0>         0.1684
     37 C29         0.9744    1.1217   -3.8367 C.ar      1 <0>        -0.1446
     38 C30         2.1469    0.4135   -3.6570 C.ar      1 <0>        -0.0384
     39 O2         -1.3379    1.4160   -3.3609 O.3       1 <0>        -0.3059
     40 C31        -2.4909    0.9458   -2.6597 C.3       1 <0>         0.0210
     41 H3         10.5555    1.5123    4.6613 H         1 <0>         0.0878
     42 H4          8.9861    2.1397    5.2195 H         1 <0>         0.0782
     43 H5          9.5911    0.5822    5.8331 H         1 <0>         0.0810
     44 H6          9.5191   -1.4087    4.4641 H         1 <0>         0.1417
     45 H7          8.4148   -2.5980    2.6374 H         1 <0>         0.1435
     46 H8          6.9848   -2.5647    0.5483 H         1 <0>         0.1553
     47 H9          8.0688    2.3239    2.9917 H         1 <0>         0.1440
     48 H10         5.2612   -3.8924   -4.2958 H         1 <0>         0.0845
     49 H11         5.9238   -5.0495   -3.1166 H         1 <0>         0.1083
     50 H12         5.1193   -3.5655   -2.5518 H         1 <0>         0.0538
     51 H13         8.8909   -3.2511   -4.5445 H         1 <0>         0.0805
     52 H14         8.1121   -4.8447   -4.3968 H         1 <0>         0.0948
     53 H15         7.4062   -3.6043   -5.4604 H         1 <0>         0.0815
     54 H16         7.2366   -3.1276   -1.2120 H         1 <0>         0.0556
     55 H17         8.0130   -4.5663   -1.9158 H         1 <0>         0.1084
     56 H18         8.7919   -2.9726   -2.0636 H         1 <0>         0.0832
     57 H19         2.3623   -1.1886   -0.2648 H         1 <0>         0.1446
     58 H20         3.8676   -1.0575    0.6761 H         1 <0>         0.1341
     59 H21         5.1660   -2.9843    1.1894 H         1 <0>         0.1290
     60 H22         5.3140   -5.4400    1.2947 H         1 <0>         0.1393
     61 H23         3.7339   -6.8248    0.0106 H         1 <0>         0.1388
     62 H24         1.9998   -5.7540   -1.3712 H         1 <0>         0.1391
     63 H25         1.8514   -3.2984   -1.4760 H         1 <0>         0.1356
     64 H26         4.1039   -1.2999   -3.4897 H         1 <0>         0.1211
     65 H27         3.2222   -2.5278   -2.5499 H         1 <0>         0.1392
     66 H28         1.0303   -1.9670   -1.5421 H         1 <0>         0.1337
     67 H29        -1.0606   -0.7050   -1.8488 H         1 <0>         0.1422
     68 H30         0.9591    1.9865   -4.4834 H         1 <0>         0.1462
     69 H31         3.0486    0.7254   -4.1630 H         1 <0>         0.1398
     70 H32        -2.7138   -0.0749   -2.9703 H         1 <0>         0.0622
     71 H33        -2.2969    0.9652   -1.5873 H         1 <0>         0.0614
     72 H34        -3.3414    1.5887   -2.8868 H         1 <0>         0.1107
     73 N6          4.1134   -0.9768   -1.4093 N.4       1 <0>        -0.3843
     74 H35         4.0846    0.0495   -1.4001 H         1 <0>         0.4475
@<TRIPOS>BOND
     1    1    2 1
     2    1   41 1
     3    1   42 1
     4    1   43 1
     5    2   13 ar
     6    2    3 ar
     7    3    4 ar
     8    3   44 1
     9    4    5 ar
    10    4   45 1
    11    5   12 ar
    12    5    6 1
    13    6    7 2
    14    6   46 1
    15    7    8 1
    16    7   14 1
    17    8    9 2
    18    8   10 am
    19   10   11 1
    20   10   12 1
    21   12   13 ar
    22   13   47 1
    23   14   15 1
    24   14   16 1
    25   14   73 1
    26   16   20 1
    27   16   17 2
    28   17   18 1
    29   18   19 2
    30   19   20 1
    31   20   21 1
    32   21   22 1
    33   21   23 1
    34   21   24 1
    35   22   48 1
    36   22   49 1
    37   22   50 1
    38   23   51 1
    39   23   52 1
    40   23   53 1
    41   24   54 1
    42   24   55 1
    43   24   56 1
    44   25   26 1
    45   25   57 1
    46   25   58 1
    47   25   73 1
    48   26   31 ar
    49   26   27 ar
    50   27   28 ar
    51   27   59 1
    52   28   29 ar
    53   28   60 1
    54   29   30 ar
    55   29   61 1
    56   30   31 ar
    57   30   62 1
    58   31   63 1
    59   32   33 1
    60   32   64 1
    61   32   65 1
    62   32   73 1
    63   33   38 ar
    64   33   34 ar
    65   34   35 ar
    66   34   66 1
    67   35   36 ar
    68   35   67 1
    69   36   37 ar
    70   36   39 1
    71   37   38 ar
    72   37   68 1
    73   38   69 1
    74   39   40 1
    75   40   70 1
    76   40   71 1
    77   40   72 1
    78   73   74 1
@<TRIPOS>MOLECULE
ZINC30977988
   83    87     0     0     0
SMALL
USER_CHARGES
1-[[3-(4-tert-butylphenyl)-1,2,4-oxadiazol-5-yl]methyl]-N-[[4-[(3S)-3-methyl-1-piperidyl]phenyl]methyl]piperidine-4-carboxamide
@<TRIPOS>ATOM
      1 C1         -4.2958    0.9839   -0.0491 C.3       1 <0>        -0.1495
      2 C2         -2.8727    1.5441   -0.0087 C.3       1 <0>        -0.0904
      3 H1         -2.9137    2.6433   -0.0159 H         1 <0>         0.0818
      4 C3         -2.1703    1.0639    1.2644 C.3       1 <0>        -0.1195
      5 C4         -0.7286    1.5791    1.2674 C.3       1 <0>        -0.1198
      6 C5         -0.0127    1.0858    0.0080 C.3       1 <0>         0.0583
      7 N1         -0.7225    1.5721   -1.1820 N.pl3     1 <0>        -0.5064
      8 C6         -2.0949    1.0518   -1.2313 C.3       1 <0>         0.0678
      9 C7         -0.0234    1.2512   -2.3478 C.ar      1 <0>         0.1084
     10 C8          0.3374    2.2521   -3.2409 C.ar      1 <0>        -0.0963
     11 C9          1.0328    1.9319   -4.3904 C.ar      1 <0>        -0.0915
     12 C10         1.3608    0.6154   -4.6578 C.ar      1 <0>        -0.1211
     13 C11         0.9985   -0.3841   -3.7735 C.ar      1 <0>        -0.0896
     14 C12         0.3076   -0.0703   -2.6196 C.ar      1 <0>        -0.1513
     15 C13         2.1142    0.2690   -5.9162 C.3       1 <0>         0.1636
     16 N2          1.1623   -0.0042   -6.9958 N.am      1 <0>        -0.7294
     17 C14         1.6115   -0.3374   -8.2220 C.2       1 <0>         0.5139
     18 O1          2.8038   -0.4111   -8.4317 O.2       1 <0>        -0.5308
     19 C15         0.6323   -0.6184   -9.3325 C.3       1 <0>        -0.1217
     20 C16        -0.2614   -1.7982   -8.9403 C.3       1 <0>        -0.1371
     21 C17        -1.2124   -2.1177  -10.0959 C.3       1 <0>        -0.0075
     22 N3         -0.4330   -2.4486  -11.2957 N.4       1 <0>        -0.4031
     23 C18         0.3976   -1.3140  -11.7189 C.3       1 <0>        -0.0016
     24 C19         1.3967   -0.9705  -10.6117 C.3       1 <0>        -0.1283
     25 C20        -1.3099   -2.8950  -12.3865 C.3       1 <0>         0.1079
     26 C21        -1.9621   -4.1989  -12.0052 C.2       1 <0>         0.0989
     27 N4         -3.1028   -4.3440  -11.3782 N.2       1 <0>        -0.4279
     28 C22        -3.2827   -5.6785  -11.2557 C.2       1 <0>         0.2374
     29 N5         -2.2509   -6.2597  -11.8102 N.2       1 <0>        -0.3442
     30 O2         -1.4880   -5.4247  -12.2485 O.3       1 <0>         0.1136
     31 C23        -4.4354   -6.3568  -10.6121 C.ar      1 <0>        -0.0576
     32 C24        -5.4667   -5.6044  -10.0539 C.ar      1 <0>        -0.0664
     33 C25        -6.5388   -6.2404   -9.4613 C.ar      1 <0>        -0.1245
     34 C26        -6.5851   -7.6219   -9.4112 C.ar      1 <0>        -0.0306
     35 C27        -5.5614   -8.3737   -9.9591 C.ar      1 <0>        -0.1158
     36 C28        -4.4872   -7.7481  -10.5588 C.ar      1 <0>        -0.0721
     37 C29        -7.7550   -8.3106   -8.7568 C.3       1 <0>        -0.0361
     38 C30        -7.2562   -9.1651   -7.5899 C.3       1 <0>        -0.1431
     39 C31        -8.7388   -7.2608   -8.2363 C.3       1 <0>        -0.1500
     40 C32        -8.4578   -9.2050   -9.7801 C.3       1 <0>        -0.1439
     41 H2         -4.8543    1.3381    0.8299 H         1 <0>         0.0619
     42 H3         -4.2575   -0.1154   -0.0407 H         1 <0>         0.0537
     43 H4         -4.7987    1.3263   -0.9655 H         1 <0>         0.0562
     44 H5         -2.7030    1.4512    2.1454 H         1 <0>         0.0693
     45 H6         -2.1698   -0.0358    1.2904 H         1 <0>         0.0598
     46 H7         -0.7323    2.6790    1.2820 H         1 <0>         0.0748
     47 H8         -0.2064    1.2024    2.1593 H         1 <0>         0.0726
     48 H9          1.0193    1.4665    0.0000 H         1 <0>         0.0783
     49 H10         0.0021   -0.0141    0.0017 H         1 <0>         0.0382
     50 H11        -2.0698   -0.0479   -1.2315 H         1 <0>         0.0370
     51 H12        -2.5887    1.4074   -2.1476 H         1 <0>         0.0754
     52 H13         0.0777    3.2799   -3.0348 H         1 <0>         0.1334
     53 H14         1.3172    2.7100   -5.0831 H         1 <0>         0.1273
     54 H15         1.2559   -1.4113   -3.9855 H         1 <0>         0.1215
     55 H16         0.0247   -0.8514   -1.9295 H         1 <0>         0.1214
     56 H17         2.7596    1.1130   -6.2012 H         1 <0>         0.0801
     57 H18         2.7335   -0.6227   -5.7391 H         1 <0>         0.0781
     58 H19         0.0809    0.0626   -6.8056 H         1 <0>         0.4222
     59 H20         0.0208    0.2817   -9.4933 H         1 <0>         0.1179
     60 H21         0.3646   -2.6766   -8.7248 H         1 <0>         0.0954
     61 H22        -0.8444   -1.5350   -8.0454 H         1 <0>         0.1184
     62 H23        -1.8461   -2.9744   -9.8231 H         1 <0>         0.1328
     63 H24        -1.8470   -1.2429  -10.3011 H         1 <0>         0.1385
     64 H25         0.9441   -1.5814  -12.6353 H         1 <0>         0.1436
     65 H26        -0.2445   -0.4429  -11.9159 H         1 <0>         0.1356
     66 H27         2.0088   -0.1106  -10.9215 H         1 <0>         0.1251
     67 H28         2.0491   -1.8358  -10.4226 H         1 <0>         0.1002
     68 H29        -2.0855   -2.1362  -12.5673 H         1 <0>         0.1717
     69 H30        -0.7149   -3.0362  -13.3008 H         1 <0>         0.1720
     70 H31        -5.4292   -4.5256  -10.0885 H         1 <0>         0.1333
     71 H32        -7.3409   -5.6582   -9.0322 H         1 <0>         0.1400
     72 H33        -5.6026   -9.4521   -9.9173 H         1 <0>         0.1351
     73 H34        -3.6881   -8.3360  -10.9857 H         1 <0>         0.1312
     74 H35        -8.1101   -9.6678   -7.1123 H         1 <0>         0.0664
     75 H36        -6.7509   -8.5220   -6.8543 H         1 <0>         0.0580
     76 H37        -6.5489   -9.9199   -7.9642 H         1 <0>         0.0594
     77 H38        -9.5927   -7.7635   -7.7587 H         1 <0>         0.0658
     78 H39        -9.0974   -6.6465   -9.0754 H         1 <0>         0.0612
     79 H40        -8.2336   -6.6177   -7.5007 H         1 <0>         0.0604
     80 H41        -9.3117   -9.7077   -9.3025 H         1 <0>         0.0664
     81 H42        -7.7505   -9.9597  -10.1544 H         1 <0>         0.0595
     82 H43        -8.8164   -8.5906  -10.6191 H         1 <0>         0.0589
     83 H44         0.2404   -3.2798  -11.0394 H         1 <0>         0.4477
@<TRIPOS>BOND
     1    1    2 1
     2    1   41 1
     3    1   42 1
     4    1   43 1
     5    2    3 1
     6    2    8 1
     7    2    4 1
     8    4    5 1
     9    4   44 1
    10    4   45 1
    11    5    6 1
    12    5   46 1
    13    5   47 1
    14    6    7 1
    15    6   48 1
    16    6   49 1
    17    7    8 1
    18    7    9 1
    19    8   50 1
    20    8   51 1
    21    9   14 ar
    22    9   10 ar
    23   10   11 ar
    24   10   52 1
    25   11   12 ar
    26   11   53 1
    27   12   13 ar
    28   12   15 1
    29   13   14 ar
    30   13   54 1
    31   14   55 1
    32   15   16 1
    33   15   56 1
    34   15   57 1
    35   16   17 am
    36   16   58 1
    37   17   18 2
    38   17   19 1
    39   19   24 1
    40   19   20 1
    41   19   59 1
    42   20   21 1
    43   20   60 1
    44   20   61 1
    45   21   22 1
    46   21   62 1
    47   21   63 1
    48   22   23 1
    49   22   25 1
    50   22   83 1
    51   23   24 1
    52   23   64 1
    53   23   65 1
    54   24   66 1
    55   24   67 1
    56   25   26 1
    57   25   68 1
    58   25   69 1
    59   26   30 1
    60   26   27 2
    61   27   28 1
    62   28   29 2
    63   28   31 1
    64   29   30 1
    65   31   36 ar
    66   31   32 ar
    67   32   33 ar
    68   32   70 1
    69   33   34 ar
    70   33   71 1
    71   34   35 ar
    72   34   37 1
    73   35   36 ar
    74   35   72 1
    75   36   73 1
    76   37   38 1
    77   37   39 1
    78   37   40 1
    79   38   74 1
    80   38   75 1
    81   38   76 1
    82   39   77 1
    83   39   78 1
    84   39   79 1
    85   40   80 1
    86   40   81 1
    87   40   82 1
@<TRIPOS>MOLECULE
ZINC43737044
   85    91     0     0     0
SMALL
USER_CHARGES

@<TRIPOS>ATOM
      1 C1         -0.7453    2.0705   -0.4059 C.3       1 <0>        -0.1509
      2 C2         -0.4946    0.5534   -0.4067 C.3       1 <0>        -0.0409
      3 C3          0.2035    0.1874   -1.7219 C.3       1 <0>        -0.1050
      4 C4          1.5529    0.8968   -1.8237 C.3       1 <0>        -0.1534
      5 C5          2.4409    0.5014   -0.6443 C.3       1 <0>         0.1067
      6 H1          2.6189   -0.5754   -0.6703 H         1 <0>         0.0503
      7 C6          1.7559    0.8680    0.6739 C.3       1 <0>        -0.1100
      8 C7          0.4001    0.1726    0.7648 C.3       1 <0>        -0.0649
      9 H2          0.5606   -0.9137    0.7514 H         1 <0>         0.0680
     10 C8         -0.2950    0.5444    2.0736 C.3       1 <0>        -0.1160
     11 C9         -1.5698   -0.2840    2.1907 C.3       1 <0>        -0.1133
     12 C10        -2.5394   -0.0161    1.0295 C.3       1 <0>        -0.0598
     13 H3         -3.0029    0.9599    1.1512 H         1 <0>         0.0791
     14 C11        -1.8451   -0.1332   -0.3248 C.3       1 <0>        -0.0730
     15 H4         -2.4599    0.4311   -1.0532 H         1 <0>         0.0685
     16 C12        -1.8382   -1.5790   -0.7997 C.3       1 <0>        -0.1152
     17 C13        -3.2677   -1.9864   -1.2220 C.3       1 <0>        -0.1085
     18 C14        -4.2553   -1.3691   -0.2637 C.3       1 <0>        -0.0155
     19 C15        -3.5868   -1.1155    1.1030 C.3       1 <0>        -0.0772
     20 H5         -3.1211   -2.0393    1.4886 H         1 <0>         0.0830
     21 C16        -4.8523   -0.8025    1.9207 C.3       1 <0>        -0.1116
     22 C17        -5.8009   -1.8790    1.3880 C.2       1 <0>        -0.0317
     23 C18        -5.4435   -2.2113    0.1307 C.2       1 <0>        -0.2311
     24 C19        -6.0962   -3.2075   -0.7144 C.2       1 <0>         0.4204
     25 O1         -7.0945   -3.7749   -0.3228 O.2       1 <0>        -0.4708
     26 C20        -5.5297   -3.5306   -2.0730 C.3       1 <0>        -0.2155
     27 C21        -6.4770   -4.4814   -2.8076 C.3       1 <0>         0.1014
     28 H6         -6.1216   -4.6254   -3.8279 H         1 <0>         0.1483
     29 C22        -7.8567   -3.8785   -2.8429 C.ar      1 <0>        -0.1240
     30 C23        -8.9871   -4.6410   -2.6343 C.ar      1 <0>        -0.0506
     31 C24       -10.2402   -4.0508   -2.6783 C.ar      1 <0>        -0.0953
     32 C25       -10.3694   -2.6948   -2.9298 C.ar      1 <0>         0.0760
     33 C26        -9.2326   -1.9214   -3.1390 C.ar      1 <0>         0.0303
     34 C27        -7.9793   -2.5159   -3.0945 C.ar      1 <0>         0.1320
     35 O2         -6.8655   -1.7626   -3.2983 O.3       1 <0>        -0.3223
     36 C28        -6.4025   -1.6401   -4.6447 C.3       1 <0>         0.0207
     37 O3         -9.6179   -0.6302   -3.3634 O.3       1 <0>        -0.2914
     38 C29       -11.0176   -0.6991   -3.6941 C.3       1 <0>         0.2092
     39 O4        -11.4685   -1.8904   -3.0229 O.3       1 <0>        -0.2958
     40 C30        -8.8960   -6.1193   -2.3520 C.3       1 <0>        -0.1003
     41 C31        -7.5106   -6.6360   -2.7417 C.3       1 <0>        -0.0034
     42 N1         -6.4967   -5.7734   -2.1160 N.4       1 <0>        -0.3866
     43 C32        -5.1768   -6.4092   -2.2244 C.3       1 <0>        -0.0534
     44 C33        -4.8335   -0.0812   -0.8618 C.3       1 <0>        -0.1494
     45 O5          3.6908    1.1876   -0.7377 O.3       1 <0>        -0.5684
     46 H7          0.2055    2.5959   -0.4954 H         1 <0>         0.0615
     47 H8         -1.3863    2.3332   -1.2475 H         1 <0>         0.0523
     48 H9         -1.2329    2.3577    0.5257 H         1 <0>         0.0586
     49 H10         0.3678   -0.8907   -1.7578 H         1 <0>         0.0649
     50 H11        -0.4295    0.4842   -2.5587 H         1 <0>         0.0643
     51 H12         2.0450    0.5845   -2.7527 H         1 <0>         0.0594
     52 H13         1.4263    1.9754   -1.8548 H         1 <0>         0.0751
     53 H14         2.3871    0.5275    1.5022 H         1 <0>         0.0663
     54 H15         1.6468    1.9477    0.7462 H         1 <0>         0.0738
     55 H16         0.3685    0.2955    2.9111 H         1 <0>         0.0618
     56 H17        -0.5202    1.6029    2.1189 H         1 <0>         0.0702
     57 H18        -1.3142   -1.3462    2.1971 H         1 <0>         0.0601
     58 H19        -2.0705   -0.0385    3.1301 H         1 <0>         0.0606
     59 H20        -1.1767   -1.6910   -1.6599 H         1 <0>         0.0720
     60 H21        -1.4952   -2.2320    0.0042 H         1 <0>         0.0636
     61 H22        -3.4641   -1.6350   -2.2384 H         1 <0>         0.0681
     62 H23        -3.3493   -3.0785   -1.2018 H         1 <0>         0.0570
     63 H24        -4.6642   -0.9486    2.9863 H         1 <0>         0.0830
     64 H25        -5.2317    0.1946    1.7319 H         1 <0>         0.0998
     65 H26        -6.6268   -2.3029    1.9366 H         1 <0>         0.1387
     66 H27        -5.4191   -2.6115   -2.6485 H         1 <0>         0.1740
     67 H28        -4.5558   -4.0060   -1.9569 H         1 <0>         0.1254
     68 H29       -11.1222   -4.6524   -2.5158 H         1 <0>         0.1515
     69 H30        -6.1639   -2.6282   -5.0381 H         1 <0>         0.0500
     70 H31        -7.1808   -1.1837   -5.2564 H         1 <0>         0.0593
     71 H32        -5.5099   -1.0150   -4.6665 H         1 <0>         0.1091
     72 H33       -11.5443    0.1768   -3.3153 H         1 <0>         0.1444
     73 H34       -11.1525   -0.7922   -4.7718 H         1 <0>         0.0960
     74 H35        -9.0632   -6.2964   -1.2896 H         1 <0>         0.1107
     75 H36        -9.6551   -6.6461   -2.9302 H         1 <0>         0.1283
     76 H37        -7.3890   -7.6599   -2.3880 H         1 <0>         0.1416
     77 H38        -7.3998   -6.6049   -3.8256 H         1 <0>         0.1336
     78 H39        -4.4408   -5.8125   -1.6857 H         1 <0>         0.1217
     79 H40        -5.2190   -7.4097   -1.7939 H         1 <0>         0.1308
     80 H41        -4.8914   -6.4771   -3.2742 H         1 <0>         0.1267
     81 H42        -5.2461   -0.2921   -1.8484 H         1 <0>         0.0620
     82 H43        -5.6218    0.2991   -0.2121 H         1 <0>         0.0554
     83 H44        -4.0438    0.6649   -0.9500 H         1 <0>         0.0697
     84 H45         4.1863    0.9941   -1.5452 H         1 <0>         0.3788
     85 H46        -6.7262   -5.6325   -1.1436 H         1 <0>         0.4316
@<TRIPOS>BOND
     1    1    2 1
     2    1   46 1
     3    1   47 1
     4    1   48 1
     5    2    8 1
     6    2   14 1
     7    2    3 1
     8    3    4 1
     9    3   49 1
    10    3   50 1
    11    4    5 1
    12    4   51 1
    13    4   52 1
    14    5    6 1
    15    5    7 1
    16    5   45 1
    17    7    8 1
    18    7   53 1
    19    7   54 1
    20    8    9 1
    21    8   10 1
    22   10   11 1
    23   10   55 1
    24   10   56 1
    25   11   12 1
    26   11   57 1
    27   11   58 1
    28   12   13 1
    29   12   19 1
    30   12   14 1
    31   14   15 1
    32   14   16 1
    33   16   17 1
    34   16   59 1
    35   16   60 1
    36   17   18 1
    37   17   61 1
    38   17   62 1
    39   18   23 1
    40   18   19 1
    41   18   44 1
    42   19   20 1
    43   19   21 1
    44   21   22 1
    45   21   63 1
    46   21   64 1
    47   22   23 2
    48   22   65 1
    49   23   24 1
    50   24   25 2
    51   24   26 1
    52   26   27 1
    53   26   66 1
    54   26   67 1
    55   27   28 1
    56   27   42 1
    57   27   29 1
    58   29   34 ar
    59   29   30 ar
    60   30   31 ar
    61   30   40 1
    62   31   32 ar
    63   31   68 1
    64   32   39 1
    65   32   33 ar
    66   33   34 ar
    67   33   37 1
    68   34   35 1
    69   35   36 1
    70   36   69 1
    71   36   70 1
    72   36   71 1
    73   37   38 1
    74   38   39 1
    75   38   72 1
    76   38   73 1
    77   40   41 1
    78   40   74 1
    79   40   75 1
    80   41   42 1
    81   41   76 1
    82   41   77 1
    83   42   43 1
    84   42   85 1
    85   43   78 1
    86   43   79 1
    87   43   80 1
    88   44   81 1
    89   44   82 1
    90   44   83 1
    91   45   84 1
@<TRIPOS>MOLECULE
ZINC63929239
   51    54     0     0     0
SMALL
USER_CHARGES

@<TRIPOS>ATOM
      1 C1         -0.0187    1.5258    0.0104 C.3       1 <0>        -0.1574
      2 C2          0.0021   -0.0041    0.0020 C.3       1 <0>         0.0959
      3 H1         -1.0159   -0.3933    0.0222 H         1 <0>         0.1813
      4 C3          0.7290   -0.5088   -1.2245 C.2       1 <0>         0.0764
      5 C4          1.7850   -1.2197   -0.7685 C.ar      1 <0>        -0.1446
      6 C5          2.8585   -1.9537   -1.4471 C.ar      1 <0>        -0.0647
      7 C6          3.8032   -2.5864   -0.7105 C.ar      1 <0>         0.0886
      8 C7          3.7963   -2.5671    0.6952 C.ar      1 <0>        -0.0327
      9 C8          2.8507   -1.9193    1.4088 C.ar      1 <0>        -0.1425
     10 C9          1.7787   -1.2005    0.7127 C.ar      1 <0>         0.3281
     11 N1          0.7583   -0.5059    1.1549 N.pl3     1 <0>        -0.5650
     12 O1          4.7919   -3.2627   -1.3527 O.3       1 <0>        -0.2973
     13 C10         5.7671   -3.9152   -0.5371 C.3       1 <0>         0.6031
     14 F1          5.1356   -4.8589    0.2800 F         1 <0>        -0.1599
     15 F2          6.7036   -4.5578   -1.3539 F         1 <0>        -0.1134
     16 F3          6.4169   -2.9676    0.2611 F         1 <0>        -0.1599
     17 C11         0.3521   -0.2688   -2.6637 C.3       1 <0>        -0.1064
     18 C12         1.3634   -0.9627   -3.5783 C.3       1 <0>         0.1038
     19 N2          0.9970   -0.7294   -4.9774 N.am      1 <0>        -0.7318
     20 C13         1.7500   -1.2493   -5.9669 C.2       1 <0>         0.5303
     21 O2          2.7309   -1.9104   -5.6991 O.2       1 <0>        -0.4982
     22 C14         1.3731   -1.0093   -7.4062 C.3       1 <0>        -0.1602
     23 H2          0.3782   -1.4103   -7.5996 H         1 <0>         0.1534
     24 C15         2.3933   -1.6820   -8.3298 C.3       1 <0>        -0.0641
     25 C16         3.6663   -0.8747   -8.3608 C.ar      1 <0>        -0.1326
     26 C17         4.8336   -1.4976   -8.7739 C.ar      1 <0>        -0.0473
     27 C18         6.0213   -0.7938   -8.8232 C.ar      1 <0>        -0.1033
     28 C19         6.0498    0.5413   -8.4605 C.ar      1 <0>        -0.0586
     29 C20         4.8914    1.1660   -8.0467 C.ar      1 <0>        -0.1175
     30 C21         3.6950    0.4582   -7.9921 C.ar      1 <0>         0.1238
     31 O3          2.5795    1.1075   -7.5597 O.3       1 <0>        -0.2877
     32 C22         1.3952    0.4770   -7.7026 C.2       1 <0>         0.4970
     33 O4          0.4004    1.0675   -8.0515 O.2       1 <0>        -0.4090
     34 Br1         7.6080   -1.6548   -9.3859 Br        1 <0>        -0.0313
     35 H3          1.0039    1.9031    0.0027 H         1 <0>         0.0846
     36 H4         -0.5459    1.8868   -0.8726 H         1 <0>         0.1103
     37 H5         -0.5289    1.8773    0.9072 H         1 <0>         0.0986
     38 H6          2.8953   -1.9899   -2.5258 H         1 <0>         0.1840
     39 H7          4.5779   -3.0913    1.2250 H         1 <0>         0.1694
     40 H8          2.8838   -1.9304    2.4882 H         1 <0>         0.1780
     41 H9         -0.6433   -0.6718   -2.8507 H         1 <0>         0.1354
     42 H10         0.3543    0.8023   -2.8661 H         1 <0>         0.1344
     43 H11         2.3588   -0.5597   -3.3913 H         1 <0>         0.0867
     44 H12         1.3612   -2.0338   -3.3759 H         1 <0>         0.0882
     45 H13         0.2125   -0.2007   -5.1916 H         1 <0>         0.4089
     46 H14         2.6093   -2.6849   -7.9614 H         1 <0>         0.1182
     47 H15         1.9817   -1.7481   -9.3369 H         1 <0>         0.1070
     48 H16         4.8146   -2.5393   -9.0584 H         1 <0>         0.1449
     49 H17         6.9773    1.0931   -8.5009 H         1 <0>         0.1485
     50 H18         4.9135    2.2082   -7.7640 H         1 <0>         0.1480
     51 H19         0.5400   -0.3492    2.0869 H         1 <0>         0.4584
@<TRIPOS>BOND
     1    1    2 1
     2    1   35 1
     3    1   36 1
     4    1   37 1
     5    2    3 1
     6    2   11 1
     7    2    4 1
     8    4    5 2
     9    4   17 1
    10    5   10 ar
    11    5    6 ar
    12    6    7 ar
    13    6   38 1
    14    7    8 ar
    15    7   12 1
    16    8    9 ar
    17    8   39 1
    18    9   10 ar
    19    9   40 1
    20   10   11 2
    21   11   51 1
    22   12   13 1
    23   13   14 1
    24   13   15 1
    25   13   16 1
    26   17   18 1
    27   17   41 1
    28   17   42 1
    29   18   19 1
    30   18   43 1
    31   18   44 1
    32   19   20 am
    33   19   45 1
    34   20   21 2
    35   20   22 1
    36   22   23 1
    37   22   32 1
    38   22   24 1
    39   24   25 1
    40   24   46 1
    41   24   47 1
    42   25   30 ar
    43   25   26 ar
    44   26   27 ar
    45   26   48 1
    46   27   28 ar
    47   27   34 1
    48   28   29 ar
    49   28   49 1
    50   29   30 ar
    51   29   50 1
    52   30   31 1
    53   31   32 1
    54   32   33 2
@<TRIPOS>MOLECULE
ZINC06409795
   70    74     0     0     0
SMALL
USER_CHARGES
3-[(S)-[benzyl-[(2-chlorophenyl)methyl]amino]-(1-tert-butyltetrazol-5-yl)methyl]-7-methyl-1H-quinolin-2-one
@<TRIPOS>ATOM
      1 C1          3.1240   -6.2773    1.9759 C.3       1 <0>        -0.1329
      2 C2          2.8342   -4.8813    1.4877 C.ar      1 <0>         0.0047
      3 C3          3.8808   -3.9892    1.2969 C.ar      1 <0>        -0.1459
      4 C4          3.6399   -2.7193    0.8550 C.ar      1 <0>        -0.0358
      5 C5          2.3271   -2.3138    0.5924 C.ar      1 <0>        -0.1635
      6 C6          2.0331   -0.9602    0.1183 C.2       1 <0>         0.0637
      7 C7          0.7413   -0.6234   -0.1192 C.2       1 <0>        -0.2802
      8 C8         -0.2893   -1.5635    0.0953 C.2       1 <0>         0.5383
      9 O1         -1.4442   -1.2384   -0.1196 O.2       1 <0>        -0.5059
     10 N1         -0.0286   -2.8104    0.5254 N.am      1 <0>        -0.6183
     11 H1         -0.7604   -3.4330    0.6585 H         1 <0>         0.4255
     12 C9          1.2634   -3.2154    0.7847 C.ar      1 <0>         0.2109
     13 C10         1.5331   -4.5034    1.2359 C.ar      1 <0>        -0.1722
     14 C11         0.4042    0.7617   -0.6079 C.3       1 <0>         0.2068
     15 H2          1.3080    1.3709   -0.6251 H         1 <0>         0.1590
     16 C12        -0.1713    0.6777   -1.9981 C.2       1 <0>         0.1256
     17 N2         -1.3866    0.3077   -2.3209 N.2       1 <0>        -0.2367
     18 N3         -1.4940    0.3697   -3.6034 N.2       1 <0>        -0.0545
     19 N4         -0.3764    0.7621   -4.1076 N.2       1 <0>        -0.0585
     20 N5          0.4645    0.9623   -3.1498 N.pl3     1 <0>        -0.2762
     21 C13         1.8508    1.4150   -3.2894 C.3       1 <0>         0.1533
     22 C14         2.7840    0.4223   -2.5933 C.3       1 <0>        -0.1796
     23 C15         2.2125    1.5001   -4.7736 C.3       1 <0>        -0.1543
     24 C16         2.0038    2.7952   -2.6472 C.3       1 <0>        -0.1740
     25 C17        -0.7658    2.7971   -0.0154 C.3       1 <0>         0.0337
     26 C18        -1.7921    2.9446   -1.1091 C.ar      1 <0>        -0.1490
     27 C19        -1.3861    3.1380   -2.4163 C.ar      1 <0>        -0.1164
     28 C20        -2.3274    3.2681   -3.4203 C.ar      1 <0>        -0.1020
     29 C21        -3.6747    3.2156   -3.1156 C.ar      1 <0>        -0.0751
     30 C22        -4.0807    3.0279   -1.8076 C.ar      1 <0>        -0.1020
     31 C23        -3.1394    2.8922   -0.8044 C.ar      1 <0>        -0.0842
     32 C24        -0.1965    1.1850    1.6991 C.3       1 <0>         0.0409
     33 C25        -1.2986    1.6912    2.5937 C.ar      1 <0>        -0.1512
     34 C26        -1.2145    2.9552    3.1468 C.ar      1 <0>        -0.0838
     35 C27        -2.2273    3.4213    3.9638 C.ar      1 <0>        -0.1085
     36 C28        -3.3206    2.6199    4.2360 C.ar      1 <0>        -0.0711
     37 C29        -3.4034    1.3540    3.6879 C.ar      1 <0>        -0.1034
     38 C30        -2.3920    0.8887    2.8661 C.ar      1 <0>        -0.0257
     39 Cl1        -2.4950   -0.7016    2.1776 Cl        1 <0>        -0.0278
     40 H3          3.0984   -6.2938    3.0654 H         1 <0>         0.0876
     41 H4          2.3722   -6.9625    1.5843 H         1 <0>         0.0776
     42 H5          4.1111   -6.5852    1.6310 H         1 <0>         0.0808
     43 H6          4.8945   -4.3022    1.4992 H         1 <0>         0.1411
     44 H7          4.4594   -2.0312    0.7094 H         1 <0>         0.1436
     45 H8          2.8276   -0.2456   -0.0386 H         1 <0>         0.1600
     46 H9          0.7260   -5.2048    1.3875 H         1 <0>         0.1422
     47 H10         2.6750   -0.5610   -3.0508 H         1 <0>         0.0818
     48 H11         3.8155    0.7591   -2.6972 H         1 <0>         0.1074
     49 H12         2.5264    0.3616   -1.5359 H         1 <0>         0.0601
     50 H13         1.5477    2.2073   -5.2696 H         1 <0>         0.0811
     51 H14         3.2439    1.8369   -4.8775 H         1 <0>         0.0933
     52 H15         2.1035    0.5168   -5.2312 H         1 <0>         0.0787
     53 H16         1.7863    2.7262   -1.5814 H         1 <0>         0.0557
     54 H17         3.0249    3.1500   -2.7874 H         1 <0>         0.1101
     55 H18         1.3093    3.4928   -3.1154 H         1 <0>         0.0843
     56 H19        -1.1079    3.3213    0.8769 H         1 <0>         0.1451
     57 H20         0.1815    3.2228   -0.3462 H         1 <0>         0.1305
     58 H21        -0.3335    3.1834   -2.6537 H         1 <0>         0.1186
     59 H22        -2.0102    3.4144   -4.4422 H         1 <0>         0.1295
     60 H23        -4.4101    3.3210   -3.8994 H         1 <0>         0.1345
     61 H24        -5.1333    2.9870   -1.5695 H         1 <0>         0.1350
     62 H25        -3.4566    2.7455    0.2175 H         1 <0>         0.1245
     63 H26        -0.0302    0.1251    1.8917 H         1 <0>         0.1344
     64 H27         0.7197    1.7394    1.9023 H         1 <0>         0.1446
     65 H28        -0.3588    3.5801    2.9377 H         1 <0>         0.1433
     66 H29        -2.1627    4.4102    4.3929 H         1 <0>         0.1445
     67 H30        -4.1099    2.9831    4.8775 H         1 <0>         0.1462
     68 H31        -4.2571    0.7278    3.9012 H         1 <0>         0.1471
     69 N6         -0.6063    1.3597    0.2898 N.4       1 <0>        -0.3879
     70 H32        -1.5052    0.8858    0.1427 H         1 <0>         0.4511
@<TRIPOS>BOND
     1    1    2 1
     2    1   40 1
     3    1   41 1
     4    1   42 1
     5    2   13 ar
     6    2    3 ar
     7    3    4 ar
     8    3   43 1
     9    4    5 ar
    10    4   44 1
    11    5   12 ar
    12    5    6 1
    13    6    7 2
    14    6   45 1
    15    7    8 1
    16    7   14 1
    17    8    9 2
    18    8   10 am
    19   10   11 1
    20   10   12 1
    21   12   13 ar
    22   13   46 1
    23   14   15 1
    24   14   16 1
    25   14   69 1
    26   16   20 1
    27   16   17 2
    28   17   18 1
    29   18   19 2
    30   19   20 1
    31   20   21 1
    32   21   22 1
    33   21   23 1
    34   21   24 1
    35   22   47 1
    36   22   48 1
    37   22   49 1
    38   23   50 1
    39   23   51 1
    40   23   52 1
    41   24   53 1
    42   24   54 1
    43   24   55 1
    44   25   26 1
    45   25   56 1
    46   25   57 1
    47   25   69 1
    48   26   31 ar
    49   26   27 ar
    50   27   28 ar
    51   27   58 1
    52   28   29 ar
    53   28   59 1
    54   29   30 ar
    55   29   60 1
    56   30   31 ar
    57   30   61 1
    58   31   62 1
    59   32   33 1
    60   32   63 1
    61   32   64 1
    62   32   69 1
    63   33   38 ar
    64   33   34 ar
    65   34   35 ar
    66   34   65 1
    67   35   36 ar
    68   35   66 1
    69   36   37 ar
    70   36   67 1
    71   37   38 ar
    72   37   68 1
    73   38   39 1
    74   69   70 1
@<TRIPOS>MOLECULE
ZINC21755404
   61    64     0     0     0
SMALL
USER_CHARGES
4-bromo-N-[(2R)-2-(3,4-dihydro-1H-isoquinolin-2-yl)-2-(4-dimethylaminophenyl)ethyl]benzenesulfonamide
@<TRIPOS>ATOM
      1 C1          7.3900    3.6163    7.4907 C.3       1 <0>         0.0749
      2 N1          7.2683    4.3892    6.2521 N.pl3     1 <0>        -0.6217
      3 C2          8.4530    5.0155    5.6602 C.3       1 <0>         0.0758
      4 C3          6.0228    4.5289    5.6357 C.ar      1 <0>         0.2483
      5 C4          4.9206    3.8430    6.1300 C.ar      1 <0>        -0.1918
      6 C5          3.6906    3.9830    5.5178 C.ar      1 <0>        -0.0398
      7 C6          3.5555    4.8050    4.4139 C.ar      1 <0>        -0.2150
      8 C7          4.6519    5.4849    3.9159 C.ar      1 <0>        -0.0619
      9 C8          5.8835    5.3538    4.5267 C.ar      1 <0>        -0.1895
     10 C9          2.2117    4.9553    3.7485 C.3       1 <0>         0.0904
     11 H1          1.4142    4.6885    4.4576 H         1 <0>         0.1486
     12 C10         2.1570    4.0677    2.5035 C.3       1 <0>         0.1001
     13 N2          2.2584    2.6615    2.9016 N.pl3     1 <0>        -1.1161
     14 S1          1.8677    1.4658    1.8244 S.o2      1 <0>         2.6946
     15 O1          0.6067    1.8147    1.2702 O.2       1 <0>        -0.9434
     16 O2          2.0919    0.2305    2.4900 O.2       1 <0>        -0.9370
     17 C11         3.0364    1.5481    0.5083 C.ar      1 <0>        -0.6778
     18 C12         4.2087    0.8187    0.5786 C.ar      1 <0>        -0.0097
     19 C13         5.1257    0.8829   -0.4536 C.ar      1 <0>        -0.1087
     20 C14         4.8703    1.6771   -1.5570 C.ar      1 <0>        -0.0358
     21 C15         3.6972    2.4067   -1.6268 C.ar      1 <0>        -0.1113
     22 C16         2.7807    2.3419   -0.5942 C.ar      1 <0>        -0.0205
     23 Br1         6.1248    1.7658   -2.9691 Br        1 <0>        -0.0210
     24 N3          2.0123    6.3577    3.3592 N.4       1 <0>        -0.3966
     25 C17         2.0183    7.2383    4.5382 C.3       1 <0>         0.0011
     26 C18         2.1773    8.6831    4.0641 C.3       1 <0>        -0.1042
     27 C19         1.1725    8.9825    2.9815 C.ar      1 <0>        -0.0899
     28 C20         0.9120   10.3083    2.6692 C.ar      1 <0>        -0.1057
     29 C21         0.0053   10.6263    1.6782 C.ar      1 <0>        -0.0932
     30 C22        -0.6470    9.6176    0.9936 C.ar      1 <0>        -0.1051
     31 C23        -0.3902    8.2978    1.3052 C.ar      1 <0>        -0.0937
     32 C24         0.5200    7.9765    2.3017 C.ar      1 <0>        -0.1306
     33 C25         0.7634    6.5222    2.6087 C.3       1 <0>         0.0388
     34 H2          6.4023    3.2268    7.7783 H         1 <0>         0.0832
     35 H3          7.7757    4.2648    8.2911 H         1 <0>         0.0666
     36 H4          8.0833    2.7771    7.3326 H         1 <0>         0.0666
     37 H5          8.1659    5.5481    4.7415 H         1 <0>         0.0809
     38 H6          9.1951    4.2405    5.4180 H         1 <0>         0.0667
     39 H7          8.8875    5.7282    6.3766 H         1 <0>         0.0660
     40 H8          5.0253    3.2011    6.9922 H         1 <0>         0.1384
     41 H9          2.8333    3.4497    5.9013 H         1 <0>         0.1351
     42 H10         4.5439    6.1223    3.0508 H         1 <0>         0.1158
     43 H11         6.7384    5.8885    4.1399 H         1 <0>         0.1355
     44 H12         1.2050    4.2322    1.9775 H         1 <0>         0.1057
     45 H13         2.9935    4.3210    1.8356 H         1 <0>         0.0848
     46 H14         2.7462    2.3922    3.8500 H         1 <0>         0.4490
     47 H15         4.4059    0.1953    1.4381 H         1 <0>         0.1510
     48 H16         6.0416    0.3134   -0.3984 H         1 <0>         0.1472
     49 H17         3.4975    3.0271   -2.4880 H         1 <0>         0.1463
     50 H18         1.8646    2.9112   -0.6488 H         1 <0>         0.1479
     51 H19         1.0708    7.1249    5.0853 H         1 <0>         0.1315
     52 H20         2.8565    6.9647    5.1959 H         1 <0>         0.1414
     53 H21         2.0130    9.3668    4.9101 H         1 <0>         0.1235
     54 H22         3.1925    8.8290    3.6666 H         1 <0>         0.1028
     55 H23         1.4215   11.0962    3.2040 H         1 <0>         0.1336
     56 H24        -0.1944   11.6602    1.4384 H         1 <0>         0.1355
     57 H25        -1.3559    9.8619    0.2163 H         1 <0>         0.1366
     58 H26        -0.9007    7.5107    0.7702 H         1 <0>         0.1350
     59 H27         0.8274    5.9634    1.6634 H         1 <0>         0.1414
     60 H28        -0.0766    6.1377    3.2058 H         1 <0>         0.1416
     61 H29         2.8483    6.6439    2.7040 H         1 <0>         0.4376
@<TRIPOS>BOND
     1    1    2 1
     2    1   34 1
     3    1   35 1
     4    1   36 1
     5    2    3 1
     6    2    4 1
     7    3   37 1
     8    3   38 1
     9    3   39 1
    10    4    9 ar
    11    4    5 ar
    12    5    6 ar
    13    5   40 1
    14    6    7 ar
    15    6   41 1
    16    7    8 ar
    17    7   10 1
    18    8    9 ar
    19    8   42 1
    20    9   43 1
    21   10   11 1
    22   10   12 1
    23   10   24 1
    24   12   13 1
    25   12   44 1
    26   12   45 1
    27   13   14 1
    28   13   46 1
    29   14   15 2
    30   14   16 2
    31   14   17 1
    32   17   22 ar
    33   17   18 ar
    34   18   19 ar
    35   18   47 1
    36   19   20 ar
    37   19   48 1
    38   20   21 ar
    39   20   23 1
    40   21   22 ar
    41   21   49 1
    42   22   50 1
    43   24   33 1
    44   24   25 1
    45   24   61 1
    46   25   26 1
    47   25   51 1
    48   25   52 1
    49   26   27 1
    50   26   53 1
    51   26   54 1
    52   27   32 ar
    53   27   28 ar
    54   28   29 ar
    55   28   55 1
    56   29   30 ar
    57   29   56 1
    58   30   31 ar
    59   30   57 1
    60   31   32 ar
    61   31   58 1
    62   32   33 1
    63   33   59 1
    64   33   60 1
@<TRIPOS>MOLECULE
ZINC36061537
   72    76     0     0     0
SMALL
USER_CHARGES

@<TRIPOS>ATOM
      1 C1          9.2880    0.0497   -4.6607 C.3       1 <0>        -0.1409
      2 C2          8.4699   -0.0190   -3.3696 C.3       1 <0>        -0.0385
      3 C3          8.9902   -1.1626   -2.4965 C.3       1 <0>        -0.1433
      4 C4          8.6025    1.3030   -2.6109 C.3       1 <0>        -0.1502
      5 C5          7.0211   -0.2624   -3.7053 C.ar      1 <0>        -0.0256
      6 C6          6.0727    0.6998   -3.4128 C.ar      1 <0>        -0.1153
      7 C7          4.7437    0.4765   -3.7207 C.ar      1 <0>        -0.0868
      8 C8          4.3631   -0.7088   -4.3216 C.ar      1 <0>        -0.1713
      9 C9          5.3116   -1.6707   -4.6149 C.ar      1 <0>        -0.0929
     10 C10         6.6412   -1.4456   -4.3109 C.ar      1 <0>        -0.1105
     11 C11         2.9142   -0.9526   -4.6563 C.3       1 <0>         0.0401
     12 N1          2.6016   -0.3395   -5.9541 N.4       1 <0>        -0.3867
     13 C12         1.1618   -0.4610   -6.2190 C.3       1 <0>         0.0435
     14 C13         0.3944    0.3464   -5.2040 C.ar      1 <0>        -0.1545
     15 C14        -0.1072   -0.2672   -4.0711 C.ar      1 <0>        -0.0775
     16 C15        -0.8114    0.4693   -3.1369 C.ar      1 <0>        -0.0990
     17 C16        -1.0165    1.8252   -3.3344 C.ar      1 <0>         0.0742
     18 C17        -0.5113    2.4432   -4.4756 C.ar      1 <0>         0.0420
     19 C18         0.1985    1.7000   -5.4048 C.ar      1 <0>        -0.0814
     20 O1         -0.8428    3.7668   -4.4380 O.3       1 <0>        -0.3007
     21 C19        -1.9030    3.8701   -3.4692 C.3       1 <0>         0.2110
     22 O2         -1.6646    2.7615   -2.5818 O.3       1 <0>        -0.2975
     23 C20         3.3539   -1.0250   -7.0134 C.3       1 <0>         0.1025
     24 C21         3.1291   -0.3197   -8.3261 C.2       1 <0>         0.1163
     25 N2          3.8559    0.6511   -8.7927 N.2       1 <0>        -0.4045
     26 C22         3.3489    1.0288   -9.9975 C.2       1 <0>        -0.0660
     27 C23         2.2707    0.2360  -10.2444 C.2       1 <0>         0.0661
     28 O3          2.1512   -0.5986   -9.1995 O.3       1 <0>        -0.1832
     29 C24         3.8693    2.0964  -10.8709 C.2       1 <0>         0.5967
     30 O4          3.3216    2.3369  -11.9297 O.2       1 <0>        -0.5180
     31 N3          4.9522    2.8058  -10.4960 N.am      1 <0>        -0.7054
     32 C25         5.4694    3.8666  -11.3639 C.3       1 <0>         0.1614
     33 C26         6.6753    4.4999  -10.7192 C.ar      1 <0>        -0.1291
     34 C27         6.5178    5.5806   -9.8716 C.ar      1 <0>        -0.0688
     35 C28         7.6229    6.1619   -9.2794 C.ar      1 <0>        -0.1555
     36 C29         8.8883    5.6615   -9.5353 C.ar      1 <0>         0.1141
     37 C30         9.0449    4.5791  -10.3844 C.ar      1 <0>        -0.1545
     38 C31         7.9378    3.9962  -10.9713 C.ar      1 <0>        -0.0678
     39 F1          9.9694    6.2293   -8.9573 F         1 <0>        -0.1337
     40 H1          9.2650   -0.9203   -5.1574 H         1 <0>         0.0589
     41 H2          8.8627    0.8059   -5.3205 H         1 <0>         0.0572
     42 H3         10.3190    0.3124   -4.4240 H         1 <0>         0.0671
     43 H4         10.0381   -0.9865   -2.2537 H         1 <0>         0.0671
     44 H5          8.4074   -1.2116   -1.5766 H         1 <0>         0.0590
     45 H6          8.8957   -2.1044   -3.0370 H         1 <0>         0.0592
     46 H7          8.2318    2.1177   -3.2329 H         1 <0>         0.0602
     47 H8          8.0197    1.2540   -1.6911 H         1 <0>         0.0608
     48 H9          9.6504    1.4790   -2.3681 H         1 <0>         0.0668
     49 H10         6.3700    1.6259   -2.9433 H         1 <0>         0.1391
     50 H11         4.0027    1.2280   -3.4915 H         1 <0>         0.1286
     51 H12         5.0143   -2.5969   -5.0841 H         1 <0>         0.1327
     52 H13         7.3828   -2.1955   -4.5435 H         1 <0>         0.1349
     53 H14         2.7286   -2.0255   -4.7072 H         1 <0>         0.1426
     54 H15         2.2837   -0.5110   -3.8846 H         1 <0>         0.1444
     55 H16         0.9437   -0.0882   -7.2198 H         1 <0>         0.1345
     56 H17         0.8665   -1.5079   -6.1489 H         1 <0>         0.1489
     57 H18         0.0511   -1.3242   -3.9159 H         1 <0>         0.1503
     58 H19        -1.2021   -0.0126   -2.2529 H         1 <0>         0.1514
     59 H20         0.5953    2.1775   -6.2885 H         1 <0>         0.1403
     60 H21        -1.8372    4.8144   -2.9287 H         1 <0>         0.1447
     61 H22        -2.8748    3.7715   -3.9528 H         1 <0>         0.0977
     62 H23         4.4166   -1.0117   -6.7712 H         1 <0>         0.1716
     63 H24         3.0121   -2.0570   -7.0923 H         1 <0>         0.1625
     64 H25         1.6347    0.2692  -11.1166 H         1 <0>         0.2480
     65 H26         5.3892    2.6139   -9.6515 H         1 <0>         0.4097
     66 H27         5.7532    3.4422  -12.3270 H         1 <0>         0.0868
     67 H28         4.6982    4.6224  -11.5130 H         1 <0>         0.0864
     68 H29         5.5307    5.9710   -9.6724 H         1 <0>         0.1350
     69 H30         7.4995    7.0064   -8.6175 H         1 <0>         0.1401
     70 H31        10.0314    4.1882  -10.5849 H         1 <0>         0.1407
     71 H32         8.0593    3.1491  -11.6301 H         1 <0>         0.1360
     72 H33         2.8591    0.6359   -5.9360 H         1 <0>         0.4278
@<TRIPOS>BOND
     1    1    2 1
     2    1   40 1
     3    1   41 1
     4    1   42 1
     5    2    3 1
     6    2    4 1
     7    2    5 1
     8    3   43 1
     9    3   44 1
    10    3   45 1
    11    4   46 1
    12    4   47 1
    13    4   48 1
    14    5   10 ar
    15    5    6 ar
    16    6    7 ar
    17    6   49 1
    18    7    8 ar
    19    7   50 1
    20    8    9 ar
    21    8   11 1
    22    9   10 ar
    23    9   51 1
    24   10   52 1
    25   11   12 1
    26   11   53 1
    27   11   54 1
    28   12   13 1
    29   12   23 1
    30   12   72 1
    31   13   14 1
    32   13   55 1
    33   13   56 1
    34   14   19 ar
    35   14   15 ar
    36   15   16 ar
    37   15   57 1
    38   16   17 ar
    39   16   58 1
    40   17   22 1
    41   17   18 ar
    42   18   19 ar
    43   18   20 1
    44   19   59 1
    45   20   21 1
    46   21   22 1
    47   21   60 1
    48   21   61 1
    49   23   24 1
    50   23   62 1
    51   23   63 1
    52   24   28 1
    53   24   25 2
    54   25   26 1
    55   26   27 2
    56   26   29 1
    57   27   28 1
    58   27   64 1
    59   29   30 2
    60   29   31 am
    61   31   32 1
    62   31   65 1
    63   32   33 1
    64   32   66 1
    65   32   67 1
    66   33   38 ar
    67   33   34 ar
    68   34   35 ar
    69   34   68 1
    70   35   36 ar
    71   35   69 1
    72   36   37 ar
    73   36   39 1
    74   37   38 ar
    75   37   70 1
    76   38   71 1
@<TRIPOS>MOLECULE
ZINC20479088
   64    69     0     0     0
SMALL
USER_CHARGES

@<TRIPOS>ATOM
      1 C1         -0.0168    1.3897    0.0097 C.ar      1 <0>        -0.0808
      2 C2          1.1701    2.0934    0.0021 C.ar      1 <0>        -0.0926
      3 C3          2.3781    1.4177   -0.0135 C.ar      1 <0>        -0.0838
      4 C4          2.4024    0.0337   -0.0212 C.ar      1 <0>        -0.0890
      5 C5          1.2212   -0.6796   -0.0133 C.ar      1 <0>        -0.0973
      6 C6          0.0021   -0.0041    0.0020 C.ar      1 <0>        -0.0149
      7 C7         -1.2706   -0.7656    0.0106 C.2       1 <0>         0.1158
      8 C8         -1.2567   -2.1326    0.0083 C.2       1 <0>        -0.2242
      9 S1         -3.0103   -2.4818    0.0211 S.3       1 <0>         0.1249
     10 C9         -3.5754   -0.7860    0.0282 C.2       1 <0>         0.3045
     11 N1         -2.4314   -0.1276    0.0260 N.2       1 <0>        -0.5217
     12 N2         -4.8741   -0.2920    0.0385 N.am      1 <0>        -0.6059
     13 C10        -5.9188   -1.1434    0.0452 C.2       1 <0>         0.5163
     14 O1         -5.7255   -2.3407    0.0422 O.2       1 <0>        -0.4837
     15 C11        -7.3273   -0.6077    0.0565 C.3       1 <0>         0.0443
     16 N3         -8.2774   -1.7281    0.0621 N.3       1 <0>        -0.5227
     17 C12        -8.2068   -2.4848   -1.1959 C.3       1 <0>         0.0198
     18 C13        -9.1661   -3.6750   -1.1262 C.3       1 <0>        -0.0069
     19 N4        -10.5342   -3.1891   -0.9033 N.4       1 <0>        -0.3810
     20 C14       -10.5943   -2.4566    0.3685 C.3       1 <0>        -0.0095
     21 C15        -9.6468   -1.2562    0.3112 C.3       1 <0>         0.0301
     22 C16       -11.4572   -4.3308   -0.8545 C.3       1 <0>         0.0619
     23 C17       -11.3962   -5.0929   -2.1798 C.3       1 <0>        -0.1267
     24 C18       -12.3575   -6.2821   -2.1290 C.3       1 <0>        -0.0790
     25 C19       -13.7827   -5.7762   -1.8967 C.3       1 <0>        -0.1193
     26 C20       -13.8437   -5.0140   -0.5715 C.3       1 <0>        -0.0791
     27 C21       -12.8823   -3.8249   -0.6223 C.3       1 <0>        -0.1260
     28 C22       -13.4410   -5.9470    0.5724 C.3       1 <0>        -0.1189
     29 C23       -12.0158   -6.4529    0.3401 C.3       1 <0>        -0.0800
     30 C24       -11.9548   -7.2150   -0.9851 C.3       1 <0>        -0.1193
     31 C25       -11.0545   -5.2637    0.2893 C.3       1 <0>        -0.1257
     32 Br1         4.0007    2.3886   -0.0250 Br        1 <0>        -0.0423
     33 H1         -0.9587    1.9178    0.0260 H         1 <0>         0.1400
     34 H2          1.1566    3.1733    0.0081 H         1 <0>         0.1369
     35 H3          3.3476   -0.4887   -0.0337 H         1 <0>         0.1392
     36 H4          1.2413   -1.7594   -0.0196 H         1 <0>         0.1351
     37 H5         -0.4184   -2.8134    0.0004 H         1 <0>         0.2038
     38 H6         -5.0287    0.6656    0.0410 H         1 <0>         0.4292
     39 H7         -7.4776    0.0006    0.9484 H         1 <0>         0.1296
     40 H8         -7.4909    0.0030   -0.8315 H         1 <0>         0.0887
     41 H9         -8.4899   -1.8376   -2.0260 H         1 <0>         0.0597
     42 H10        -7.1894   -2.8460   -1.3464 H         1 <0>         0.1378
     43 H11        -9.1258   -4.2295   -2.0638 H         1 <0>         0.1370
     44 H12        -8.8744   -4.3291   -0.3045 H         1 <0>         0.1422
     45 H13       -11.6127   -2.1077    0.5390 H         1 <0>         0.1388
     46 H14       -10.2953   -3.1169    1.1825 H         1 <0>         0.1412
     47 H15        -9.6801   -0.7210    1.2602 H         1 <0>         0.1271
     48 H16        -9.9537   -0.5888   -0.4941 H         1 <0>         0.0647
     49 H17       -11.6831   -4.4283   -2.9947 H         1 <0>         0.0849
     50 H18       -10.3809   -5.4534   -2.3452 H         1 <0>         0.0870
     51 H19       -12.3141   -6.8251   -3.0731 H         1 <0>         0.0921
     52 H20       -14.0696   -5.1116   -2.7116 H         1 <0>         0.0704
     53 H21       -14.4676   -6.6234   -1.8605 H         1 <0>         0.0800
     54 H22       -14.8590   -4.6536   -0.4060 H         1 <0>         0.0920
     55 H23       -12.9258   -3.2819    0.3219 H         1 <0>         0.0866
     56 H24       -13.1693   -3.1603   -1.4372 H         1 <0>         0.0849
     57 H25       -13.4845   -5.4040    1.5165 H         1 <0>         0.0705
     58 H26       -14.1259   -6.7941    0.6086 H         1 <0>         0.0799
     59 H27       -11.7289   -7.1175    1.1550 H         1 <0>         0.0921
     60 H28       -12.6397   -8.0622   -0.9489 H         1 <0>         0.0799
     61 H29       -10.9395   -7.5754   -1.1506 H         1 <0>         0.0708
     62 H30       -10.0392   -5.6241    0.1239 H         1 <0>         0.0875
     63 H31       -11.0979   -4.7208    1.2335 H         1 <0>         0.0867
     64 H32       -10.7997   -2.5744   -1.6581 H         1 <0>         0.4164
@<TRIPOS>BOND
     1    1    6 ar
     2    1    2 ar
     3    1   33 1
     4    2    3 ar
     5    2   34 1
     6    3    4 ar
     7    3   32 1
     8    4    5 ar
     9    4   35 1
    10    5    6 ar
    11    5   36 1
    12    6    7 1
    13    7   11 1
    14    7    8 2
    15    8    9 1
    16    8   37 1
    17    9   10 1
    18   10   11 2
    19   10   12 1
    20   12   13 am
    21   12   38 1
    22   13   14 2
    23   13   15 1
    24   15   16 1
    25   15   39 1
    26   15   40 1
    27   16   21 1
    28   16   17 1
    29   17   18 1
    30   17   41 1
    31   17   42 1
    32   18   19 1
    33   18   43 1
    34   18   44 1
    35   19   20 1
    36   19   22 1
    37   19   64 1
    38   20   21 1
    39   20   45 1
    40   20   46 1
    41   21   47 1
    42   21   48 1
    43   22   27 1
    44   22   31 1
    45   22   23 1
    46   23   24 1
    47   23   49 1
    48   23   50 1
    49   24   30 1
    50   24   25 1
    51   24   51 1
    52   25   26 1
    53   25   52 1
    54   25   53 1
    55   26   27 1
    56   26   28 1
    57   26   54 1
    58   27   55 1
    59   27   56 1
    60   28   29 1
    61   28   57 1
    62   28   58 1
    63   29   30 1
    64   29   31 1
    65   29   59 1
    66   30   60 1
    67   30   61 1
    68   31   62 1
    69   31   63 1
@<TRIPOS>MOLECULE
ZINC63513879
   73    77     0     0     0
SMALL
USER_CHARGES

@<TRIPOS>ATOM
      1 C1          0.1578   -2.6741    1.7122 C.3       1 <0>        -0.1472
      2 C2         -1.1020   -3.0638    2.4417 C.ar      1 <0>        -0.0981
      3 C3         -1.7029   -4.2799    2.1822 C.ar      1 <0>        -0.1106
      4 C4         -2.8592   -4.6381    2.8508 C.ar      1 <0>        -0.1061
      5 C5         -3.4173   -3.7807    3.7811 C.ar      1 <0>        -0.1058
      6 C6         -2.8209   -2.5633    4.0454 C.ar      1 <0>        -0.0620
      7 C7         -1.6567   -2.2029    3.3796 C.ar      1 <0>         0.1206
      8 N1         -1.0469   -0.9727    3.6492 N.am      1 <0>        -0.6825
      9 C8         -0.6784   -0.6650    4.9086 C.2       1 <0>         0.4966
     10 O1         -0.8104   -1.4814    5.7957 O.2       1 <0>        -0.4865
     11 C9         -0.1023    0.6935    5.2144 C.3       1 <0>         0.1773
     12 C10        -1.2397    1.6825    5.4771 C.3       1 <0>        -0.1927
     13 C11        -0.6548    3.0618    5.7876 C.3       1 <0>        -0.1353
     14 C12         0.2377    2.9700    7.0270 C.3       1 <0>        -0.1200
     15 C13         1.3751    1.9811    6.7642 C.3       1 <0>        -0.1182
     16 C14         0.7902    0.6018    6.4537 C.3       1 <0>        -0.1075
     17 N2          0.6923    1.1551    4.0735 N.am      1 <0>        -0.6658
     18 C15         1.9068    0.4329    3.6865 C.3       1 <0>         0.1298
     19 C16         1.5856   -0.5272    2.5394 C.3       1 <0>        -0.1683
     20 C17         2.8348   -1.2701    2.1414 C.2       1 <0>         0.0722
     21 C18         3.2248   -2.4928    2.5686 C.ar      1 <0>        -0.1691
     22 C19         2.6261   -3.4593    3.4970 C.ar      1 <0>        -0.0159
     23 C20         3.2668   -4.6270    3.7315 C.ar      1 <0>        -0.1474
     24 C21         4.4855   -4.9365    3.1120 C.ar      1 <0>         0.0561
     25 C22         5.0972   -4.0996    2.2475 C.ar      1 <0>        -0.2093
     26 C23         4.5120   -2.8436    1.9270 C.ar      1 <0>         0.3301
     27 N3          4.9026   -1.8755    1.1340 N.pl3     1 <0>        -0.5839
     28 C24         3.9030   -0.8024    1.1784 C.3       1 <0>         0.0600
     29 C25         0.3061    2.2442    3.3798 C.2       1 <0>         0.5989
     30 O2          1.0512    3.2000    3.2846 O.2       1 <0>        -0.4453
     31 C26        -1.0231    2.2764    2.7349 C.ar      1 <0>        -0.1672
     32 C27        -2.0101    1.3657    3.1167 C.ar      1 <0>        -0.1228
     33 C28        -3.2486    1.4014    2.5113 C.ar      1 <0>        -0.1252
     34 C29        -3.5151    2.3369    1.5265 C.ar      1 <0>        -0.0636
     35 C30        -2.5430    3.2420    1.1423 C.ar      1 <0>        -0.1185
     36 C31        -1.2998    3.2219    1.7445 C.ar      1 <0>         0.0196
     37 Cl1        -0.0827    4.3639    1.2669 Cl        1 <0>        -0.0271
     38 C32        -3.4301   -1.6292    5.0591 C.3       1 <0>        -0.1199
     39 H1          1.0248   -2.9370    2.3184 H         1 <0>         0.0739
     40 H2          0.2055   -3.2039    0.7609 H         1 <0>         0.0761
     41 H3          0.1544   -1.5994    1.5299 H         1 <0>         0.0718
     42 H4         -1.2695   -4.9518    1.4562 H         1 <0>         0.1269
     43 H5         -3.3276   -5.5893    2.6456 H         1 <0>         0.1297
     44 H6         -4.3206   -4.0631    4.3013 H         1 <0>         0.1311
     45 H7         -0.8894   -0.3414    2.9298 H         1 <0>         0.4125
     46 H8         -1.8756    1.7479    4.5942 H         1 <0>         0.1273
     47 H9         -1.8310    1.3391    6.3260 H         1 <0>         0.0961
     48 H10        -0.0636    3.4052    4.9387 H         1 <0>         0.0809
     49 H11        -1.4652    3.7663    5.9748 H         1 <0>         0.0750
     50 H12         0.6544    3.9526    7.2482 H         1 <0>         0.0694
     51 H13        -0.3536    2.6266    7.8759 H         1 <0>         0.0666
     52 H14         1.9663    2.3245    5.9153 H         1 <0>         0.0698
     53 H15         2.0110    1.9157    7.6471 H         1 <0>         0.0719
     54 H16         0.1990    0.2584    7.3026 H         1 <0>         0.0943
     55 H17         1.6006   -0.1027    6.2666 H         1 <0>         0.0703
     56 H18         2.6655    1.1453    3.3625 H         1 <0>         0.0958
     57 H19         2.2805   -0.1329    4.5400 H         1 <0>         0.0979
     58 H20         0.8269   -1.2396    2.8635 H         1 <0>         0.1429
     59 H21         1.2118    0.0385    1.6860 H         1 <0>         0.1139
     60 H22         1.6882   -3.2410    3.9858 H         1 <0>         0.1594
     61 H23         2.8281   -5.3396    4.4143 H         1 <0>         0.1582
     62 H24         4.9545   -5.8832    3.3359 H         1 <0>         0.1617
     63 H25         6.0362   -4.3851    1.7969 H         1 <0>         0.1612
     64 H26         3.4739   -0.6447    0.1889 H         1 <0>         0.1749
     65 H27         4.3593    0.1184    1.5417 H         1 <0>         0.1750
     66 H28        -1.8040    0.6345    3.8844 H         1 <0>         0.1754
     67 H29        -4.0126    0.6973    2.8061 H         1 <0>         0.1395
     68 H30        -4.4869    2.3597    1.0558 H         1 <0>         0.1442
     69 H31        -2.7574    3.9689    0.3728 H         1 <0>         0.1466
     70 H32        -3.0870   -1.9022    6.0570 H         1 <0>         0.0871
     71 H33        -3.1273   -0.6057    4.8381 H         1 <0>         0.0541
     72 H34        -4.5166   -1.7041    5.0153 H         1 <0>         0.0730
     73 H35         5.7146   -1.8711    0.6035 H         1 <0>         0.4562
@<TRIPOS>BOND
     1    1    2 1
     2    1   39 1
     3    1   40 1
     4    1   41 1
     5    2    7 ar
     6    2    3 ar
     7    3    4 ar
     8    3   42 1
     9    4    5 ar
    10    4   43 1
    11    5    6 ar
    12    5   44 1
    13    6    7 ar
    14    6   38 1
    15    7    8 1
    16    8    9 am
    17    8   45 1
    18    9   10 2
    19    9   11 1
    20   11   16 1
    21   11   12 1
    22   11   17 1
    23   12   13 1
    24   12   46 1
    25   12   47 1
    26   13   14 1
    27   13   48 1
    28   13   49 1
    29   14   15 1
    30   14   50 1
    31   14   51 1
    32   15   16 1
    33   15   52 1
    34   15   53 1
    35   16   54 1
    36   16   55 1
    37   17   18 1
    38   17   29 am
    39   18   19 1
    40   18   56 1
    41   18   57 1
    42   19   20 1
    43   19   58 1
    44   19   59 1
    45   20   28 1
    46   20   21 2
    47   21   26 ar
    48   21   22 ar
    49   22   23 ar
    50   22   60 1
    51   23   24 ar
    52   23   61 1
    53   24   25 ar
    54   24   62 1
    55   25   26 ar
    56   25   63 1
    57   26   27 2
    58   27   28 1
    59   27   73 1
    60   28   64 1
    61   28   65 1
    62   29   30 2
    63   29   31 1
    64   31   36 ar
    65   31   32 ar
    66   32   33 ar
    67   32   66 1
    68   33   34 ar
    69   33   67 1
    70   34   35 ar
    71   34   68 1
    72   35   36 ar
    73   35   69 1
    74   36   37 1
    75   38   70 1
    76   38   71 1
    77   38   72 1
@<TRIPOS>MOLECULE
ZINC08964647
   68    72     0     0     0
SMALL
USER_CHARGES
1-(4-isopropylphenyl)-5-[(methoxy-methyl-BLAHyl)methylaminomethylene]-2-thioxo-hexahydropyrimidine-4,6-dione
@<TRIPOS>ATOM
      1 C1          2.9487   -9.0546    2.6964 C.3       1 <0>        -0.1453
      2 C2          3.2223   -9.1364    1.1933 C.3       1 <0>        -0.0626
      3 C3          3.1281  -10.5935    0.7363 C.3       1 <0>        -0.1479
      4 C4          2.2031   -8.3105    0.4516 C.ar      1 <0>        -0.0429
      5 C5          2.6151   -7.2541   -0.3400 C.ar      1 <0>        -0.1090
      6 C6          1.6835   -6.4953   -1.0211 C.ar      1 <0>        -0.0760
      7 C7          0.3320   -6.7943   -0.9106 C.ar      1 <0>         0.0951
      8 C8         -0.0789   -7.8523   -0.1108 C.ar      1 <0>        -0.0645
      9 C9          0.8580   -8.6107    0.5636 C.ar      1 <0>        -0.1040
     10 N1         -0.6154   -6.0265   -1.6003 N.am      1 <0>        -0.4683
     11 C10        -0.8390   -4.7534   -1.2144 C.2       1 <0>         0.5470
     12 O1         -0.2303   -4.2679   -0.2794 O.2       1 <0>        -0.4106
     13 C11        -1.8455   -3.9687   -1.9514 C.3       1 <0>        -0.1475
     14 C12        -2.1328   -2.6607   -1.6090 C.2       1 <0>         0.1833
     15 N2         -1.5838   -2.1169   -0.5040 N.2       1 <0>        -0.5133
     16 C13        -1.8883   -0.7306   -0.1411 C.3       1 <0>        -0.0199
     17 C14        -1.0467   -0.3239    1.0702 C.3       1 <0>         0.1165
     18 H1         -1.2794    0.7061    1.3403 H         1 <0>         0.1472
     19 C15         0.4143   -0.4276    0.7179 C.ar      1 <0>        -0.1205
     20 C16         1.3376   -0.9605    1.5925 C.ar      1 <0>        -0.0542
     21 C17         2.6738   -1.0334    1.2298 C.ar      1 <0>        -0.0949
     22 C18         3.0923   -0.5765   -0.0089 C.ar      1 <0>         0.0769
     23 C19         2.1640   -0.0403   -0.8948 C.ar      1 <0>         0.0279
     24 C20         0.8282    0.0370   -0.5265 C.ar      1 <0>         0.1402
     25 O2         -0.0816    0.5652   -1.3882 O.3       1 <0>        -0.3240
     26 C21        -0.3164    1.9721   -1.3017 C.3       1 <0>         0.0218
     27 O3          2.8144    0.3340   -2.0363 O.3       1 <0>        -0.2932
     28 C22         4.0800   -0.3517   -1.9993 C.3       1 <0>         0.2108
     29 O4          4.3256   -0.5386   -0.5929 O.3       1 <0>        -0.2960
     30 C23         0.9341   -1.4770    2.9501 C.3       1 <0>        -0.1016
     31 C24        -0.4502   -0.9445    3.3211 C.3       1 <0>        -0.0003
     32 C25        -2.7661   -1.0403    2.6136 C.3       1 <0>        -0.0431
     33 C26        -2.5280   -4.6379   -3.0736 C.2       1 <0>         0.5411
     34 O5         -3.3672   -4.0531   -3.7326 O.2       1 <0>        -0.4491
     35 N3         -2.1968   -5.9159   -3.3504 N.am      1 <0>        -0.6147
     36 C27        -1.2742   -6.5717   -2.6325 C.2       1 <0>         0.5017
     37 S1         -0.9186   -8.1919   -3.0561 S.2       1 <0>        -0.4217
     38 H2          3.0157   -8.0165    3.0220 H         1 <0>         0.0548
     39 H3          1.9495   -9.4370    2.9052 H         1 <0>         0.0580
     40 H4          3.6858   -9.6520    3.2330 H         1 <0>         0.0633
     41 H5          4.2214   -8.7540    0.9846 H         1 <0>         0.0822
     42 H6          3.3230  -10.6518   -0.3345 H         1 <0>         0.0597
     43 H7          3.8652  -11.1909    1.2729 H         1 <0>         0.0629
     44 H8          2.1290  -10.9759    0.9451 H         1 <0>         0.0591
     45 H9          3.6664   -7.0221   -0.4256 H         1 <0>         0.1332
     46 H10         2.0058   -5.6704   -1.6392 H         1 <0>         0.1229
     47 H11        -1.1297   -8.0843   -0.0191 H         1 <0>         0.1260
     48 H12         0.5393   -9.4364    1.1826 H         1 <0>         0.1345
     49 H13        -2.7970   -2.0743   -2.2265 H         1 <0>         0.1519
     50 H14        -2.7423   -4.0948   -1.5274 H         1 <0>         0.1684
     51 H15        -2.9464   -0.6438    0.1060 H         1 <0>         0.0933
     52 H16        -1.6564   -0.0758   -0.9810 H         1 <0>         0.1509
     53 H17         3.3941   -1.4494    1.9186 H         1 <0>         0.1506
     54 H18        -1.0617    2.2623   -2.0422 H         1 <0>         0.1084
     55 H19        -0.6799    2.2193   -0.3043 H         1 <0>         0.0494
     56 H20         0.6133    2.5080   -1.4927 H         1 <0>         0.0606
     57 H21         4.0096   -1.3136   -2.5070 H         1 <0>         0.0947
     58 H22         4.8612    0.2613   -2.4489 H         1 <0>         0.1445
     59 H23         1.6599   -1.1465    3.6931 H         1 <0>         0.1274
     60 H24         0.9094   -2.5665    2.9303 H         1 <0>         0.1103
     61 H25        -0.3924    0.1281    3.5065 H         1 <0>         0.1335
     62 H26        -0.8134   -1.4515    4.2149 H         1 <0>         0.1396
     63 H27        -3.4239   -1.3876    1.8169 H         1 <0>         0.1173
     64 H28        -2.9483   -1.6245    3.5157 H         1 <0>         0.1269
     65 H29        -2.9648    0.0121    2.8160 H         1 <0>         0.1248
     66 H30        -2.6365   -6.3708   -4.0856 H         1 <0>         0.4578
     67 N4         -1.3591   -1.2253    2.1916 N.4       1 <0>        -0.3927
     68 H31        -1.2264   -2.1971    1.8880 H         1 <0>         0.4413
@<TRIPOS>BOND
     1    1    2 1
     2    1   38 1
     3    1   39 1
     4    1   40 1
     5    2    3 1
     6    2    4 1
     7    2   41 1
     8    3   42 1
     9    3   43 1
    10    3   44 1
    11    4    9 ar
    12    4    5 ar
    13    5    6 ar
    14    5   45 1
    15    6    7 ar
    16    6   46 1
    17    7    8 ar
    18    7   10 1
    19    8    9 ar
    20    8   47 1
    21    9   48 1
    22   10   36 1
    23   10   11 am
    24   11   12 2
    25   11   13 1
    26   13   33 1
    27   13   50 1
    28   13   14 1
    29   14   49 1
    30   14   15 2
    31   15   16 1
    32   16   17 1
    33   16   51 1
    34   16   52 1
    35   17   18 1
    36   17   19 1
    37   17   67 1
    38   19   24 ar
    39   19   20 ar
    40   20   21 ar
    41   20   30 1
    42   21   22 ar
    43   21   53 1
    44   22   29 1
    45   22   23 ar
    46   23   24 ar
    47   23   27 1
    48   24   25 1
    49   25   26 1
    50   26   54 1
    51   26   55 1
    52   26   56 1
    53   27   28 1
    54   28   29 1
    55   28   57 1
    56   28   58 1
    57   30   31 1
    58   30   59 1
    59   30   60 1
    60   31   61 1
    61   31   62 1
    62   31   67 1
    63   32   63 1
    64   32   64 1
    65   32   65 1
    66   32   67 1
    67   33   34 2
    68   33   35 am
    69   35   36 1
    70   35   66 1
    71   36   37 2
    72   67   68 1
@<TRIPOS>MOLECULE
ZINC13064428
   70    75     0     0     0
SMALL
USER_CHARGES
8-[[benzyl-[(1S)-1-(1-benzyltetrazol-5-yl)propyl]amino]methyl]-3,6-dihydro-2H-[1,4]dioxino[2,3-g]quinolin-7-one
@<TRIPOS>ATOM
      1 C1          5.6134    2.7053   -4.8540 C.3       1 <0>        -0.1664
      2 C2          4.9474    2.8990   -3.4902 C.3       1 <0>        -0.1750
      3 C3          4.9853    1.5819   -2.7126 C.3       1 <0>         0.1288
      4 H1          6.0212    1.2755   -2.5672 H         1 <0>         0.1478
      5 C4          4.3244    1.7711   -1.3715 C.2       1 <0>         0.1347
      6 N1          3.0437    1.9354   -1.1464 N.2       1 <0>        -0.2766
      7 N2          2.8768    2.0680    0.1243 N.2       1 <0>        -0.0488
      8 N3          4.0173    1.9873    0.7160 N.2       1 <0>        -0.0484
      9 N4          4.9344    1.8010   -0.1720 N.pl3     1 <0>        -0.2735
     10 C5          6.3707    1.6558    0.0776 C.3       1 <0>         0.1432
     11 C6          6.6993    0.2001    0.2880 C.ar      1 <0>        -0.1366
     12 C7          7.0414   -0.5941   -0.7904 C.ar      1 <0>        -0.1175
     13 C8          7.3427   -1.9293   -0.5974 C.ar      1 <0>        -0.1183
     14 C9          7.2969   -2.4715    0.6734 C.ar      1 <0>        -0.0910
     15 C10         6.9599   -1.6760    1.7525 C.ar      1 <0>        -0.1083
     16 C11         6.6590   -0.3407    1.5596 C.ar      1 <0>        -0.0792
     17 C12         2.8274    0.8217   -3.5052 C.3       1 <0>        -0.0003
     18 C13         2.5623    1.9910   -4.4181 C.ar      1 <0>        -0.1340
     19 C14         2.0338    3.1614   -3.9065 C.ar      1 <0>        -0.0865
     20 C15         1.7956    4.2358   -4.7431 C.ar      1 <0>        -0.1128
     21 C16         2.0757    4.1361   -6.0931 C.ar      1 <0>        -0.0916
     22 C17         2.5990    2.9638   -6.6056 C.ar      1 <0>        -0.1090
     23 C18         2.8425    1.8913   -5.7681 C.ar      1 <0>        -0.1175
     24 C19         4.5368   -0.7888   -2.9162 C.3       1 <0>         0.0613
     25 C20         3.9279   -1.8353   -3.8134 C.2       1 <0>        -0.2779
     26 C21         4.6869   -2.4331   -4.7669 C.2       1 <0>         0.0687
     27 C22         4.0670   -3.4446   -5.6218 C.ar      1 <0>        -0.1534
     28 C23         4.8007   -4.0937   -6.6222 C.ar      1 <0>        -0.0425
     29 C24         4.1884   -5.0412   -7.4152 C.ar      1 <0>         0.0322
     30 C25         2.8404   -5.3569   -7.2211 C.ar      1 <0>         0.1423
     31 C26         2.1078   -4.7214   -6.2333 C.ar      1 <0>        -0.1718
     32 C27         2.7089   -3.7634   -5.4276 C.ar      1 <0>         0.2128
     33 N5          1.9929   -3.1189   -4.4392 N.am      1 <0>        -0.6159
     34 H2          1.0578   -3.3394   -4.3054 H         1 <0>         0.4276
     35 C28         2.5740   -2.1939   -3.6555 C.2       1 <0>         0.5432
     36 O1          1.9119   -1.6481   -2.7894 O.2       1 <0>        -0.5256
     37 O2          2.2298   -6.2935   -7.9964 O.3       1 <0>        -0.2943
     38 C29         2.8844   -6.6424   -9.2206 C.3       1 <0>         0.0164
     39 C30         4.3720   -6.8722   -8.9222 C.3       1 <0>         0.0182
     40 O3          4.9143   -5.6599   -8.3877 O.3       1 <0>        -0.2999
     41 H3          5.5088    3.6171   -5.4421 H         1 <0>         0.0922
     42 H4          6.6711    2.4829   -4.7135 H         1 <0>         0.0742
     43 H5          5.1346    1.8781   -5.3780 H         1 <0>         0.0522
     44 H6          3.9116    3.2074   -3.6322 H         1 <0>         0.1289
     45 H7          5.4817    3.6668   -2.9307 H         1 <0>         0.1106
     46 H8          6.6439    2.2223    0.9678 H         1 <0>         0.1376
     47 H9          6.9285    2.0340   -0.7791 H         1 <0>         0.1238
     48 H10         7.0728   -0.1716   -1.7838 H         1 <0>         0.1142
     49 H11         7.6097   -2.5500   -1.4399 H         1 <0>         0.1320
     50 H12         7.5281   -3.5158    0.8236 H         1 <0>         0.1337
     51 H13         6.9281   -2.0986    2.7459 H         1 <0>         0.1356
     52 H14         6.3921    0.2799    2.4022 H         1 <0>         0.1347
     53 H15         2.2987   -0.0562   -3.8764 H         1 <0>         0.1437
     54 H16         2.4776    1.0586   -2.5004 H         1 <0>         0.1855
     55 H17         1.8107    3.2378   -2.8526 H         1 <0>         0.1416
     56 H18         1.3871    5.1519   -4.3426 H         1 <0>         0.1350
     57 H19         1.8861    4.9743   -6.7473 H         1 <0>         0.1337
     58 H20         2.8179    2.8859   -7.6603 H         1 <0>         0.1332
     59 H21         3.2513    0.9754   -6.1686 H         1 <0>         0.1210
     60 H22         5.6134   -0.9468   -2.8522 H         1 <0>         0.1362
     61 H23         4.0987   -0.8640   -1.9210 H         1 <0>         0.1414
     62 H24         5.7262   -2.1671   -4.8917 H         1 <0>         0.1584
     63 H25         5.8427   -3.8529   -6.7725 H         1 <0>         0.1561
     64 H26         1.0669   -4.9708   -6.0893 H         1 <0>         0.1551
     65 H27         2.4455   -7.5546   -9.6249 H         1 <0>         0.1354
     66 H28         2.7742   -5.8313   -9.9404 H         1 <0>         0.0889
     67 H29         4.4811   -7.6760   -8.1942 H         1 <0>         0.0857
     68 H30         4.8951   -7.1348   -9.8418 H         1 <0>         0.1341
     69 N6          4.2795    0.5462   -3.4962 N.4       1 <0>        -0.3846
     70 H31         4.6282    0.5631   -4.4618 H         1 <0>         0.4255
@<TRIPOS>BOND
     1    1    2 1
     2    1   41 1
     3    1   42 1
     4    1   43 1
     5    2    3 1
     6    2   44 1
     7    2   45 1
     8    3    4 1
     9    3    5 1
    10    3   69 1
    11    5    9 1
    12    5    6 2
    13    6    7 1
    14    7    8 2
    15    8    9 1
    16    9   10 1
    17   10   11 1
    18   10   46 1
    19   10   47 1
    20   11   16 ar
    21   11   12 ar
    22   12   13 ar
    23   12   48 1
    24   13   14 ar
    25   13   49 1
    26   14   15 ar
    27   14   50 1
    28   15   16 ar
    29   15   51 1
    30   16   52 1
    31   17   18 1
    32   17   53 1
    33   17   54 1
    34   17   69 1
    35   18   23 ar
    36   18   19 ar
    37   19   20 ar
    38   19   55 1
    39   20   21 ar
    40   20   56 1
    41   21   22 ar
    42   21   57 1
    43   22   23 ar
    44   22   58 1
    45   23   59 1
    46   24   25 1
    47   24   60 1
    48   24   61 1
    49   24   69 1
    50   25   35 1
    51   25   26 2
    52   26   27 1
    53   26   62 1
    54   27   32 ar
    55   27   28 ar
    56   28   29 ar
    57   28   63 1
    58   29   40 1
    59   29   30 ar
    60   30   31 ar
    61   30   37 1
    62   31   32 ar
    63   31   64 1
    64   32   33 1
    65   33   34 1
    66   33   35 am
    67   35   36 2
    68   37   38 1
    69   38   39 1
    70   38   65 1
    71   38   66 1
    72   39   40 1
    73   39   67 1
    74   39   68 1
    75   69   70 1
@<TRIPOS>MOLECULE
ZINC09311866
   75    78     0     0     0
SMALL
USER_CHARGES
(4E,5S)-5-(4-allyloxy-3-ethoxy-phenyl)-1-(3-dimethylaminopropyl)-4-[hydroxy-[(2R)-2-methyl-2,3-dihydrobenzofuran-5-yl]methylene]pyrrolidine-2,3-dione
@<TRIPOS>ATOM
      1 C1          5.1952   -8.7023   -2.8724 C.3       1 <0>        -0.1549
      2 C2          3.8726   -8.2362   -2.2604 C.3       1 <0>         0.0546
      3 O1          2.8215   -8.4031   -3.2140 O.3       1 <0>        -0.3016
      4 C3          1.5715   -8.0337   -2.8261 C.ar      1 <0>         0.1106
      5 C4          1.3617   -7.5220   -1.5556 C.ar      1 <0>        -0.1425
      6 C5          0.0904   -7.1465   -1.1630 C.ar      1 <0>        -0.0908
      7 C6         -0.9745   -7.2855   -2.0335 C.ar      1 <0>        -0.1086
      8 C7         -0.7711   -7.7901   -3.3044 C.ar      1 <0>        -0.1891
      9 C8          0.5006   -8.1683   -3.7043 C.ar      1 <0>         0.1085
     10 O2          0.7016   -8.6696   -4.9524 O.3       1 <0>        -0.2959
     11 C9         -0.4439   -8.7793   -5.7997 C.3       1 <0>         0.0903
     12 C10        -0.0306   -9.3500   -7.1318 C.2       1 <0>        -0.1615
     13 C11        -0.7441  -10.2973   -7.6883 C.2       1 <0>        -0.1649
     14 C12        -0.1360   -6.5902    0.2192 C.3       1 <0>         0.2450
     15 H1          0.6878   -6.8721    0.8750 H         1 <0>         0.1023
     16 C13        -0.2569   -5.0851    0.1578 C.2       1 <0>        -0.3411
     17 C14         0.6993   -4.1932   -0.2883 C.2       1 <0>         0.3220
     18 C15         0.4218   -2.7487   -0.2730 C.ar      1 <0>        -0.1831
     19 C16         0.0313   -2.1171    0.9143 C.ar      1 <0>         0.0013
     20 C17        -0.2308   -0.7686    0.9251 C.ar      1 <0>        -0.1426
     21 C18        -0.1123   -0.0148   -0.2448 C.ar      1 <0>         0.1522
     22 C19         0.2847   -0.6460   -1.4211 C.ar      1 <0>        -0.1826
     23 C20         0.5463   -1.9928   -1.4459 C.ar      1 <0>        -0.0319
     24 C21         0.3480    0.4212   -2.4971 C.3       1 <0>        -0.1068
     25 C22         0.3291    1.7212   -1.6586 C.3       1 <0>         0.0757
     26 H2          1.3437    2.0597   -1.4485 H         1 <0>         0.0938
     27 O3         -0.3316    1.3115   -0.4495 O.3       1 <0>        -0.2938
     28 C23        -0.4717    2.8134   -2.3704 C.3       1 <0>        -0.1533
     29 O4          1.8885   -4.6474   -0.7384 O.3       1 <0>        -0.4325
     30 C24        -1.5376   -4.7764    0.6393 C.2       1 <0>         0.3852
     31 O5         -2.0128   -3.6596    0.7401 O.2       1 <0>        -0.3990
     32 C25        -2.2154   -6.0495    1.0050 C.2       1 <0>         0.4843
     33 O6         -3.3396   -6.1348    1.4551 O.2       1 <0>        -0.4845
     34 N1         -1.4012   -7.0909    0.7641 N.am      1 <0>        -0.5981
     35 C26        -1.7277   -8.4991    1.0017 C.3       1 <0>         0.1414
     36 C27        -2.3688   -9.0929   -0.2542 C.3       1 <0>        -0.1895
     37 C28        -2.7098  -10.5637   -0.0061 C.3       1 <0>        -0.0029
     38 C29        -2.3643  -11.1802   -2.3219 C.3       1 <0>        -0.0499
     39 C30        -3.8803  -12.4664   -0.9398 C.3       1 <0>        -0.0425
     40 H3          5.9970   -8.5750   -2.1450 H         1 <0>         0.0819
     41 H4          5.1177   -9.7542   -3.1474 H         1 <0>         0.0671
     42 H5          5.4132   -8.1096   -3.7609 H         1 <0>         0.0686
     43 H6          3.9502   -7.1843   -1.9855 H         1 <0>         0.0653
     44 H7          3.6546   -8.8289   -1.3720 H         1 <0>         0.0610
     45 H8          2.1911   -7.4168   -0.8720 H         1 <0>         0.1412
     46 H9         -1.9669   -6.9952   -1.7215 H         1 <0>         0.1210
     47 H10        -1.6040   -7.8935   -3.9841 H         1 <0>         0.1338
     48 H11        -1.1782   -9.4371   -5.3346 H         1 <0>         0.0599
     49 H12        -0.8823   -7.7923   -5.9475 H         1 <0>         0.0731
     50 H13         0.8539   -8.9781   -7.6276 H         1 <0>         0.1238
     51 H14        -1.6285  -10.6692   -7.1925 H         1 <0>         0.0964
     52 H15        -0.4479  -10.7063   -8.6430 H         1 <0>         0.1122
     53 H16        -0.0636   -2.6915    1.8239 H         1 <0>         0.1350
     54 H17        -0.5310   -0.2881    1.8445 H         1 <0>         0.1397
     55 H18         0.8466   -2.4690   -2.3675 H         1 <0>         0.1314
     56 H19         1.2710    0.3413   -3.0713 H         1 <0>         0.0964
     57 H20        -0.5219    0.3665   -3.1517 H         1 <0>         0.0957
     58 H21        -0.5489    3.6873   -1.7235 H         1 <0>         0.0736
     59 H22         0.0337    3.0899   -3.2957 H         1 <0>         0.0835
     60 H23        -1.4703    2.4412   -2.5990 H         1 <0>         0.0687
     61 H24         2.4561   -3.8736   -1.0196 H         1 <0>         0.4174
     62 H25        -0.8165   -9.0483    1.2388 H         1 <0>         0.0956
     63 H26        -2.4250   -8.5747    1.8361 H         1 <0>         0.0981
     64 H27        -3.2800   -8.5437   -0.4913 H         1 <0>         0.0924
     65 H28        -1.6715   -9.0173   -1.0885 H         1 <0>         0.1056
     66 H29        -1.7986  -11.1128    0.2310 H         1 <0>         0.1339
     67 H30        -3.4071  -10.6392    0.8283 H         1 <0>         0.1330
     68 H31        -1.5121  -11.7982   -2.0390 H         1 <0>         0.1253
     69 H32        -2.8460  -11.6064   -3.2019 H         1 <0>         0.1231
     70 H33        -2.0217  -10.1706   -2.5484 H         1 <0>         0.1195
     71 H34        -4.6398  -12.3918   -0.1616 H         1 <0>         0.1228
     72 H35        -4.3298  -12.8654   -1.8492 H         1 <0>         0.1227
     73 H36        -3.0830  -13.1310   -0.6069 H         1 <0>         0.1237
     74 N2         -3.3470  -11.1166   -1.2197 N.4       1 <0>        -0.3969
     75 H37        -4.1217  -10.5032   -1.4985 H         1 <0>         0.4313
@<TRIPOS>BOND
     1    1    2 1
     2    1   40 1
     3    1   41 1
     4    1   42 1
     5    2    3 1
     6    2   43 1
     7    2   44 1
     8    3    4 1
     9    4    9 ar
    10    4    5 ar
    11    5    6 ar
    12    5   45 1
    13    6    7 ar
    14    6   14 1
    15    7    8 ar
    16    7   46 1
    17    8    9 ar
    18    8   47 1
    19    9   10 1
    20   10   11 1
    21   11   12 1
    22   11   48 1
    23   11   49 1
    24   12   13 2
    25   12   50 1
    26   13   51 1
    27   13   52 1
    28   14   15 1
    29   14   34 1
    30   14   16 1
    31   16   17 2
    32   16   30 1
    33   17   18 1
    34   17   29 1
    35   18   23 ar
    36   18   19 ar
    37   19   20 ar
    38   19   53 1
    39   20   21 ar
    40   20   54 1
    41   21   27 1
    42   21   22 ar
    43   22   23 ar
    44   22   24 1
    45   23   55 1
    46   24   25 1
    47   24   56 1
    48   24   57 1
    49   25   26 1
    50   25   27 1
    51   25   28 1
    52   28   58 1
    53   28   59 1
    54   28   60 1
    55   29   61 1
    56   30   31 2
    57   30   32 1
    58   32   33 2
    59   32   34 am
    60   34   35 1
    61   35   36 1
    62   35   62 1
    63   35   63 1
    64   36   37 1
    65   36   64 1
    66   36   65 1
    67   37   66 1
    68   37   67 1
    69   37   74 1
    70   38   68 1
    71   38   69 1
    72   38   70 1
    73   38   74 1
    74   39   71 1
    75   39   72 1
    76   39   73 1
    77   39   74 1
    78   74   75 1
@<TRIPOS>MOLECULE
ZINC39656802
   65    68     0     0     0
SMALL
USER_CHARGES

@<TRIPOS>ATOM
      1 C1         -1.0812   -0.1525   -0.7472 C.3       1 <0>        -0.1617
      2 C2         -1.9715   -0.2716    0.4914 C.3       1 <0>         0.1853
      3 H1         -2.2787    0.7229    0.8150 H         1 <0>         0.1013
      4 C3         -3.1918   -1.0899    0.1560 C.ar      1 <0>        -0.0823
      5 C4         -3.1125   -2.4697    0.1293 C.ar      1 <0>        -0.1128
      6 C5         -4.2315   -3.2207   -0.1777 C.ar      1 <0>        -0.0857
      7 C6         -5.4309   -2.5913   -0.4584 C.ar      1 <0>        -0.0890
      8 C7         -5.5098   -1.2105   -0.4315 C.ar      1 <0>        -0.0830
      9 C8         -4.3915   -0.4606   -0.1192 C.ar      1 <0>        -0.1012
     10 Br1        -6.9620   -3.6181   -0.8791 Br        1 <0>        -0.0375
     11 N1         -1.2250   -0.9267    1.5682 N.am      1 <0>        -0.7270
     12 C9         -0.4246   -0.1995    2.3726 C.2       1 <0>         0.5095
     13 O1         -0.3224    0.9973    2.2049 O.2       1 <0>        -0.4937
     14 C10         0.3433   -0.8735    3.4803 C.3       1 <0>        -0.1149
     15 H2          0.5542   -1.9103    3.2186 H         1 <0>         0.1167
     16 C11         1.6576   -0.1122    3.7642 C.3       1 <0>         0.1036
     17 N2          1.3277    0.7991    4.8852 N.am      1 <0>        -0.6122
     18 C12         0.4480   -0.0047    5.7672 C.3       1 <0>         0.1099
     19 C13        -0.4461   -0.8039    4.7984 C.3       1 <0>        -0.0725
     20 C14        -0.6913   -2.2080    5.3423 C.3       1 <0>        -0.1337
     21 C15        -1.5279   -2.1161    6.6216 C.3       1 <0>        -0.0100
     22 N3         -2.8044   -1.4538    6.3273 N.4       1 <0>        -0.5045
     23 C16        -2.5632   -0.0724    5.8934 C.3       1 <0>        -0.0092
     24 C17        -1.7706   -0.0778    4.5832 C.3       1 <0>        -0.1468
     25 C18         1.7357    2.0713    5.0630 C.2       1 <0>         0.5943
     26 O2          1.4547    2.6622    6.0878 O.2       1 <0>        -0.5168
     27 C19         2.5235    2.7471    4.0138 C.ar      1 <0>        -0.1338
     28 C20         3.4433    2.0240    3.2509 C.ar      1 <0>        -0.0830
     29 C21         4.1756    2.6608    2.2722 C.ar      1 <0>        -0.1197
     30 C22         4.0037    4.0158    2.0413 C.ar      1 <0>        -0.0740
     31 C23         3.0977    4.7422    2.7885 C.ar      1 <0>        -0.1253
     32 C24         2.3488    4.1163    3.7735 C.ar      1 <0>         0.1449
     33 O3          1.4542    4.8280    4.5051 O.3       1 <0>        -0.2876
     34 C25         0.1776    4.8540    4.0885 C.2       1 <0>         0.4567
     35 O4         -0.1630    4.1836    3.1428 O.2       1 <0>        -0.4838
     36 C26        -0.8299    5.7193    4.8007 C.3       1 <0>        -0.1424
     37 H3         -0.7741   -1.1469   -1.0709 H         1 <0>         0.0616
     38 H4         -1.6366    0.3350   -1.5484 H         1 <0>         0.0723
     39 H5         -0.1986    0.4394   -0.5046 H         1 <0>         0.0689
     40 H6         -2.1759   -2.9610    0.3481 H         1 <0>         0.1283
     41 H7         -4.1694   -4.2987   -0.1989 H         1 <0>         0.1363
     42 H8         -6.4460   -0.7187   -0.6505 H         1 <0>         0.1380
     43 H9         -4.4540    0.6173   -0.0942 H         1 <0>         0.1353
     44 H10        -1.3068   -1.8839    1.7024 H         1 <0>         0.3970
     45 H11         2.4436   -0.8077    4.0586 H         1 <0>         0.0921
     46 H12         1.9630    0.4588    2.8875 H         1 <0>         0.1071
     47 H13         1.0414   -0.6817    6.3817 H         1 <0>         0.0864
     48 H14        -0.1591    0.6472    6.3953 H         1 <0>         0.0870
     49 H15        -1.2273   -2.7978    4.5987 H         1 <0>         0.0977
     50 H16         0.2637   -2.6837    5.5654 H         1 <0>         0.1224
     51 H17        -1.7188   -3.1190    7.0034 H         1 <0>         0.1405
     52 H18        -0.9841   -1.5402    7.3704 H         1 <0>         0.1330
     53 H19        -3.2816   -1.9567    5.5943 H         1 <0>         0.4277
     54 H20        -3.5174    0.4313    5.7384 H         1 <0>         0.1380
     55 H21        -1.9948    0.4549    6.6595 H         1 <0>         0.1335
     56 H22        -1.5765    0.9484    4.2711 H         1 <0>         0.1240
     57 H23        -2.3456   -0.5906    3.8122 H         1 <0>         0.0962
     58 H24         3.5807    0.9675    3.4278 H         1 <0>         0.1357
     59 H25         4.8868    2.1010    1.6831 H         1 <0>         0.1384
     60 H26         4.5819    4.5070    1.2727 H         1 <0>         0.1410
     61 H27         2.9694    5.7984    2.6029 H         1 <0>         0.1406
     62 H28        -0.3416    6.2457    5.6208 H         1 <0>         0.0958
     63 H29        -1.2460    6.4437    4.1006 H         1 <0>         0.1103
     64 H30        -1.6309    5.0944    5.1957 H         1 <0>         0.1027
     65 H31        -3.3784   -1.4489    7.1571 H         1 <0>         0.4341
@<TRIPOS>BOND
     1    1    2 1
     2    1   37 1
     3    1   38 1
     4    1   39 1
     5    2    3 1
     6    2    4 1
     7    2   11 1
     8    4    9 ar
     9    4    5 ar
    10    5    6 ar
    11    5   40 1
    12    6    7 ar
    13    6   41 1
    14    7    8 ar
    15    7   10 1
    16    8    9 ar
    17    8   42 1
    18    9   43 1
    19   11   12 am
    20   11   44 1
    21   12   13 2
    22   12   14 1
    23   14   15 1
    24   14   19 1
    25   14   16 1
    26   16   17 1
    27   16   45 1
    28   16   46 1
    29   17   18 1
    30   17   25 am
    31   18   19 1
    32   18   47 1
    33   18   48 1
    34   19   24 1
    35   19   20 1
    36   20   21 1
    37   20   49 1
    38   20   50 1
    39   21   22 1
    40   21   51 1
    41   21   52 1
    42   22   23 1
    43   22   53 1
    44   22   65 1
    45   23   24 1
    46   23   54 1
    47   23   55 1
    48   24   56 1
    49   24   57 1
    50   25   26 2
    51   25   27 1
    52   27   32 ar
    53   27   28 ar
    54   28   29 ar
    55   28   58 1
    56   29   30 ar
    57   29   59 1
    58   30   31 ar
    59   30   60 1
    60   31   32 ar
    61   31   61 1
    62   32   33 1
    63   33   34 1
    64   34   35 2
    65   34   36 1
    66   36   62 1
    67   36   63 1
    68   36   64 1
@<TRIPOS>MOLECULE
ZINC63362070
   68    73     0     0     0
SMALL
USER_CHARGES

@<TRIPOS>ATOM
      1 C1         -0.0187    1.5258    0.0104 C.3       1 <0>        -0.1537
      2 C2          0.0021   -0.0041    0.0020 C.3       1 <0>         0.1295
      3 C3          0.7191   -0.5434   -1.2358 C.3       1 <0>         0.0997
      4 H1          1.1251    0.2774   -1.8271 H         1 <0>         0.1825
      5 C4          1.8386   -1.4520   -0.7488 C.2       1 <0>         0.0685
      6 C5          1.6371   -2.6334   -1.3275 C.ar      1 <0>        -0.1385
      7 C6          2.4137   -3.8827   -1.2924 C.ar      1 <0>         0.0079
      8 C7          1.9046   -4.9238   -2.0031 C.ar      1 <0>        -0.1600
      9 C8          0.7159   -4.8468   -2.7354 C.ar      1 <0>         0.0532
     10 C9         -0.0598   -3.7372   -2.8263 C.ar      1 <0>        -0.2023
     11 C10         0.3749   -2.5749   -2.1246 C.ar      1 <0>         0.3675
     12 N1         -0.1632   -1.3759   -2.0560 N.pl3     1 <0>        -0.5869
     13 C11         2.8834   -1.0275    0.2538 C.3       1 <0>        -0.1038
     14 C12         2.1304   -0.4314    1.4599 C.3       1 <0>         0.1485
     15 N2          0.6936   -0.5420    1.1917 N.am      1 <0>        -0.6246
     16 C13        -0.2385   -1.1569    1.9329 C.2       1 <0>         0.7207
     17 O1         -0.0317   -1.6128    3.0403 O.2       1 <0>        -0.5053
     18 N3         -1.4250   -1.2107    1.3124 N.am      1 <0>        -0.5105
     19 C14        -1.3934   -0.5757    0.1224 C.2       1 <0>         0.5469
     20 O2         -2.2951   -0.4827   -0.6825 O.2       1 <0>        -0.4543
     21 C15        -2.5546   -1.8455    1.8331 C.ar      1 <0>         0.1722
     22 C16        -3.4488   -1.1386    2.6245 C.ar      1 <0>        -0.1015
     23 C17        -4.5653   -1.7678    3.1381 C.ar      1 <0>        -0.0737
     24 C18        -4.8019   -3.1059    2.8686 C.ar      1 <0>        -0.1004
     25 C19        -3.9242   -3.8235    2.0848 C.ar      1 <0>        -0.0763
     26 C20        -2.7937   -3.1985    1.5539 C.ar      1 <0>        -0.1240
     27 C21        -1.8531   -3.9594    0.7089 C.2       1 <0>         0.5732
     28 O3         -0.8673   -3.4131    0.2526 O.2       1 <0>        -0.5554
     29 N4         -2.0867   -5.2598    0.4430 N.am      1 <0>        -0.7135
     30 C22        -1.1529   -6.0152   -0.3958 C.3       1 <0>         0.1696
     31 C23        -1.6399   -7.4343   -0.5374 C.ar      1 <0>        -0.1258
     32 C24        -1.2437   -8.3938    0.3756 C.ar      1 <0>        -0.0905
     33 C25        -1.6877   -9.6969    0.2501 C.ar      1 <0>        -0.1738
     34 C26        -2.5322  -10.0437   -0.7924 C.ar      1 <0>         0.1192
     35 C27        -2.9313   -9.0778   -1.7112 C.ar      1 <0>         0.1011
     36 C28        -2.4864   -7.7724   -1.5768 C.ar      1 <0>        -0.1557
     37 O4         -3.7599   -9.4133   -2.7360 O.3       1 <0>        -0.3015
     38 C29        -4.1280   -8.3702   -3.6407 C.3       1 <0>         0.0259
     39 O5         -2.9695  -11.3253   -0.9176 O.3       1 <0>        -0.3022
     40 C30        -2.5187  -12.2633    0.0617 C.3       1 <0>         0.0232
     41 H2          1.0039    1.9031    0.0027 H         1 <0>         0.0975
     42 H3         -0.5459    1.8868   -0.8726 H         1 <0>         0.0963
     43 H4         -0.5289    1.8773    0.9072 H         1 <0>         0.0898
     44 H5          3.3347   -3.9675   -0.7347 H         1 <0>         0.1674
     45 H6          2.4462   -5.8582   -2.0023 H         1 <0>         0.1532
     46 H7          0.3934   -5.7308   -3.2654 H         1 <0>         0.1536
     47 H8         -0.9705   -3.7348   -3.4068 H         1 <0>         0.1629
     48 H9          3.4685   -1.8911    0.5701 H         1 <0>         0.1199
     49 H10         3.5373   -0.2744   -0.1860 H         1 <0>         0.1328
     50 H11         2.3810   -0.9877    2.3631 H         1 <0>         0.1228
     51 H12         2.4030    0.6167    1.5838 H         1 <0>         0.1051
     52 H13        -3.2710   -0.0953    2.8393 H         1 <0>         0.1375
     53 H14        -5.2582   -1.2136    3.7538 H         1 <0>         0.1460
     54 H15        -5.6781   -3.5892    3.2749 H         1 <0>         0.1449
     55 H16        -4.1126   -4.8666    1.8781 H         1 <0>         0.1374
     56 H17        -2.8731   -5.6956    0.8070 H         1 <0>         0.4064
     57 H18        -1.0926   -5.5518   -1.3806 H         1 <0>         0.0718
     58 H19        -0.1661   -6.0142    0.0672 H         1 <0>         0.0782
     59 H20        -0.5856   -8.1248    1.1886 H         1 <0>         0.1290
     60 H21        -1.3762  -10.4448    0.9643 H         1 <0>         0.1414
     61 H22        -2.7977   -7.0201   -2.2863 H         1 <0>         0.1345
     62 H23        -4.7895   -8.7717   -4.4084 H         1 <0>         0.1055
     63 H24        -4.6430   -7.5802   -3.0942 H         1 <0>         0.0543
     64 H25        -3.2322   -7.9630   -4.1096 H         1 <0>         0.0540
     65 H26        -1.4305  -12.3213    0.0353 H         1 <0>         0.0584
     66 H27        -2.8414  -11.9390    1.0510 H         1 <0>         0.0582
     67 H28        -2.9402  -13.2450   -0.1544 H         1 <0>         0.1066
     68 H29        -0.9938   -1.0889   -2.4668 H         1 <0>         0.4592
@<TRIPOS>BOND
     1    1    2 1
     2    1   41 1
     3    1   42 1
     4    1   43 1
     5    2   15 1
     6    2   19 1
     7    2    3 1
     8    3    4 1
     9    3   12 1
    10    3    5 1
    11    5    6 2
    12    5   13 1
    13    6   11 ar
    14    6    7 ar
    15    7    8 ar
    16    7   44 1
    17    8    9 ar
    18    8   45 1
    19    9   10 ar
    20    9   46 1
    21   10   11 ar
    22   10   47 1
    23   11   12 2
    24   12   68 1
    25   13   14 1
    26   13   48 1
    27   13   49 1
    28   14   15 1
    29   14   50 1
    30   14   51 1
    31   15   16 am
    32   16   17 2
    33   16   18 am
    34   18   19 am
    35   18   21 1
    36   19   20 2
    37   21   26 ar
    38   21   22 ar
    39   22   23 ar
    40   22   52 1
    41   23   24 ar
    42   23   53 1
    43   24   25 ar
    44   24   54 1
    45   25   26 ar
    46   25   55 1
    47   26   27 1
    48   27   28 2
    49   27   29 am
    50   29   30 1
    51   29   56 1
    52   30   31 1
    53   30   57 1
    54   30   58 1
    55   31   36 ar
    56   31   32 ar
    57   32   33 ar
    58   32   59 1
    59   33   34 ar
    60   33   60 1
    61   34   35 ar
    62   34   39 1
    63   35   36 ar
    64   35   37 1
    65   36   61 1
    66   37   38 1
    67   38   62 1
    68   38   63 1
    69   38   64 1
    70   39   40 1
    71   40   65 1
    72   40   66 1
    73   40   67 1
@<TRIPOS>MOLECULE
ZINC08386461
   67    68     0     0     0
SMALL
USER_CHARGES
[4,5-diacetoxy-2-(acetoxymethyl)-6-[(4-methylpiperazin-1-yl)thiocarbamoylamino]tetrahydropyran-3-yl] acetate
@<TRIPOS>ATOM
      1 C1          3.5097   -4.2628    3.2343 C.3       1 <0>        -0.1466
      2 C2          3.4283   -2.7586    3.2779 C.2       1 <0>         0.4594
      3 O1          3.8872   -2.1558    4.2191 O.2       1 <0>        -0.5077
      4 O2          2.8460   -2.0885    2.2711 O.3       1 <0>        -0.3472
      5 C3          2.8034   -0.6413    2.3801 C.3       1 <0>         0.0805
      6 C4          2.1077   -0.0573    1.1489 C.3       1 <0>         0.0917
      7 H1          2.6079   -0.4103    0.2471 H         1 <0>         0.1068
      8 C5          2.1715    1.4713    1.2034 C.3       1 <0>         0.0642
      9 H2          3.2123    1.7937    1.1741 H         1 <0>         0.1216
     10 C6          1.4212    2.0492   -0.0005 C.3       1 <0>         0.1027
     11 H3          1.9149    1.7384   -0.9213 H         1 <0>         0.1372
     12 C7         -0.0187    1.5267    0.0104 C.3       1 <0>         0.0408
     13 H4         -0.5443    1.8887   -0.8732 H         1 <0>         0.1159
     14 C8          0.0021   -0.0041    0.0020 C.3       1 <0>         0.2981
     15 H5          0.4746   -0.3562   -0.9150 H         1 <0>         0.1409
     16 O3          0.7413   -0.4753    1.1306 O.3       1 <0>        -0.3567
     17 N1         -1.3705   -0.5117    0.0704 N.pl3     1 <0>        -0.6468
     18 C9         -1.7057   -1.6388   -0.5880 C.2       1 <0>         0.5906
     19 S1         -0.5276   -2.4774   -1.5044 S.2       1 <0>        -0.5622
     20 N2         -2.9684   -2.1058   -0.5251 N.pl3     1 <0>        -0.5366
     21 N3         -3.9084   -1.4367    0.2061 N.3       1 <0>        -0.3301
     22 C10        -4.3893   -2.2595    1.3247 C.3       1 <0>         0.0019
     23 C11        -5.3791   -1.4474    2.1633 C.3       1 <0>         0.0071
     24 C12        -6.0160   -0.1911    0.1948 C.3       1 <0>         0.0068
     25 C13        -5.0263   -1.0032   -0.6437 C.3       1 <0>         0.0079
     26 C14        -7.5078   -0.2944    2.0998 C.3       1 <0>        -0.0415
     27 O4         -0.6962    1.9962    1.2058 O.3       1 <0>        -0.3053
     28 C15        -2.0228    2.1823    1.1210 C.2       1 <0>         0.4487
     29 O5         -2.5988    1.9603    0.0824 O.2       1 <0>        -0.5161
     30 C16        -2.7937    2.6683    2.3213 C.3       1 <0>        -0.1477
     31 O6          1.4126    3.4987    0.0826 O.3       1 <0>        -0.3292
     32 C17         1.3751    4.1754   -1.0761 C.2       1 <0>         0.4562
     33 O7          1.3504    3.5762   -2.1250 O.2       1 <0>        -0.5031
     34 C18         1.3639    5.6823   -1.0686 C.3       1 <0>        -0.1474
     35 O8          1.5530    1.9393    2.4309 O.3       1 <0>        -0.3161
     36 C19         2.3499    2.0718    3.5028 C.2       1 <0>         0.4529
     37 O9          3.5254    1.8055    3.4183 O.2       1 <0>        -0.5032
     38 C20         1.7785    2.5527    4.8118 C.3       1 <0>        -0.1448
     39 H6          4.4348   -4.5625    2.7419 H         1 <0>         0.1083
     40 H7          3.4946   -4.6571    4.2504 H         1 <0>         0.1043
     41 H8          2.6585   -4.6568    2.6790 H         1 <0>         0.0943
     42 H9          3.8194   -0.2515    2.4424 H         1 <0>         0.1068
     43 H10         2.2510   -0.3606    3.2769 H         1 <0>         0.0756
     44 H11        -2.0380   -0.0365    0.5897 H         1 <0>         0.4076
     45 H12        -3.2097   -2.9170   -0.9990 H         1 <0>         0.4256
     46 H13        -4.8861   -3.1481    0.9352 H         1 <0>         0.0792
     47 H14        -3.5450   -2.5576    1.9462 H         1 <0>         0.1323
     48 H15        -4.8751   -0.5731    2.5751 H         1 <0>         0.1401
     49 H16        -5.7592   -2.0653    2.9768 H         1 <0>         0.1457
     50 H17        -5.5193    0.6975    0.5843 H         1 <0>         0.1446
     51 H18        -6.8604    0.1069   -0.4267 H         1 <0>         0.1452
     52 H19        -4.6462   -0.3854   -1.4573 H         1 <0>         0.1350
     53 H20        -5.5300   -1.8776   -1.0559 H         1 <0>         0.0775
     54 H21        -8.3546   -0.0440    1.4608 H         1 <0>         0.1259
     55 H22        -7.8466   -0.9260    2.9210 H         1 <0>         0.1256
     56 H23        -7.0723    0.6207    2.5010 H         1 <0>         0.1256
     57 H24        -2.1103    2.8122    3.1582 H         1 <0>         0.1001
     58 H25        -3.2798    3.6142    2.0824 H         1 <0>         0.1105
     59 H26        -3.5486    1.9299    2.5915 H         1 <0>         0.0957
     60 H27         2.3885    6.0534   -1.0955 H         1 <0>         0.1125
     61 H28         0.8228    6.0460   -1.9421 H         1 <0>         0.1082
     62 H29         0.8725    6.0375   -0.1629 H         1 <0>         0.0964
     63 H30         1.0022    1.8636    5.1443 H         1 <0>         0.0983
     64 H31         2.5703    2.5964    5.5597 H         1 <0>         0.1054
     65 H32         1.3498    3.5458    4.6781 H         1 <0>         0.1023
     66 N4         -6.5083   -1.0371    1.3026 N.4       1 <0>        -0.4018
     67 H33        -6.9512   -1.8763    0.9104 H         1 <0>         0.4297
@<TRIPOS>BOND
     1    1    2 1
     2    1   39 1
     3    1   40 1
     4    1   41 1
     5    2    3 2
     6    2    4 1
     7    4    5 1
     8    5    6 1
     9    5   42 1
    10    5   43 1
    11    6    7 1
    12    6   16 1
    13    6    8 1
    14    8    9 1
    15    8   10 1
    16    8   35 1
    17   10   11 1
    18   10   12 1
    19   10   31 1
    20   12   13 1
    21   12   14 1
    22   12   27 1
    23   14   15 1
    24   14   16 1
    25   14   17 1
    26   17   18 1
    27   17   44 1
    28   18   19 2
    29   18   20 1
    30   20   21 1
    31   20   45 1
    32   21   25 1
    33   21   22 1
    34   22   23 1
    35   22   46 1
    36   22   47 1
    37   23   48 1
    38   23   49 1
    39   23   66 1
    40   24   25 1
    41   24   50 1
    42   24   51 1
    43   24   66 1
    44   25   52 1
    45   25   53 1
    46   26   54 1
    47   26   55 1
    48   26   56 1
    49   26   66 1
    50   27   28 1
    51   28   29 2
    52   28   30 1
    53   30   57 1
    54   30   58 1
    55   30   59 1
    56   31   32 1
    57   32   33 2
    58   32   34 1
    59   34   60 1
    60   34   61 1
    61   34   62 1
    62   35   36 1
    63   36   37 2
    64   36   38 1
    65   38   63 1
    66   38   64 1
    67   38   65 1
    68   66   67 1
@<TRIPOS>MOLECULE
ZINC33033196
   69    71     0     0     0
SMALL
USER_CHARGES
N-[2-(2-methoxyethylamino)-2-oxo-ethyl]-N-methyl-4-piperazin-1-yl-3-(p-tolylsulfonylamino)benzamide
@<TRIPOS>ATOM
      1 C1         -6.9953    7.1510    4.0294 C.3       1 <0>        -0.1312
      2 C2         -6.7324    5.7706    3.4848 C.ar      1 <0>        -0.0252
      3 C3         -7.7472    5.0684    2.8620 C.ar      1 <0>        -0.1511
      4 C4         -7.5060    3.8022    2.3625 C.ar      1 <0>        -0.0123
      5 C5         -6.2497    3.2386    2.4851 C.ar      1 <0>        -0.6612
      6 C6         -5.2362    3.9389    3.1122 C.ar      1 <0>        -0.0016
      7 C7         -5.4762    5.2068    3.6078 C.ar      1 <0>        -0.1389
      8 S1         -5.9423    1.6247    1.8483 S.o2      1 <0>         2.6837
      9 O1         -7.1982    0.9617    1.7984 O.2       1 <0>        -0.9506
     10 O2         -4.8354    1.1062    2.5731 O.2       1 <0>        -0.9393
     11 N1         -5.4393    1.8044    0.2808 N.pl3     1 <0>        -1.0723
     12 C8         -4.2290    2.4519    0.0037 C.ar      1 <0>         0.1198
     13 C9         -3.0369    1.7591    0.0971 C.ar      1 <0>        -0.0204
     14 C10        -1.8307    2.4091   -0.1809 C.ar      1 <0>        -0.1210
     15 C11        -1.8343    3.7578   -0.5468 C.ar      1 <0>        -0.0866
     16 C12        -3.0253    4.4432   -0.6434 C.ar      1 <0>        -0.1661
     17 C13        -4.2257    3.7991   -0.3680 C.ar      1 <0>         0.1173
     18 N2         -5.4277    4.4978   -0.4622 N.pl3     1 <0>        -0.4808
     19 C14        -5.1879    5.9332   -0.6660 C.3       1 <0>         0.0188
     20 C15        -6.5271    6.6739   -0.6845 C.3       1 <0>        -0.0001
     21 N3         -7.3718    6.1267   -1.7554 N.4       1 <0>        -0.5375
     22 C16        -7.6116    4.6912   -1.5516 C.3       1 <0>        -0.0041
     23 C17        -6.2723    3.9506   -1.5331 C.3       1 <0>         0.0195
     24 C18        -0.5555    1.6739   -0.0821 C.2       1 <0>         0.5614
     25 O3         -0.4698    0.6997    0.6405 O.2       1 <0>        -0.5139
     26 N4          0.5129    2.0788   -0.7970 N.am      1 <0>        -0.5939
     27 C19         0.3811    3.1849   -1.7485 C.3       1 <0>         0.0583
     28 C20         1.8061    1.4128   -0.6225 C.3       1 <0>         0.0942
     29 C21         1.9126    0.2614   -1.5889 C.2       1 <0>         0.4982
     30 O4          0.9983    0.0208   -2.3486 O.2       1 <0>        -0.5384
     31 N5          3.0238   -0.5010   -1.6090 N.am      1 <0>        -0.7335
     32 C22         3.1273   -1.6203   -2.5484 C.3       1 <0>         0.1249
     33 C23         4.4779   -2.3158   -2.3662 C.3       1 <0>         0.0462
     34 O5          4.5379   -2.9065   -1.0664 O.3       1 <0>        -0.3893
     35 C24         5.7651   -3.5854   -0.7926 C.3       1 <0>         0.0271
     36 H1         -8.0430    7.4269    3.8390 H         1 <0>         0.0704
     37 H2         -6.3300    7.8735    3.5339 H         1 <0>         0.0762
     38 H3         -6.8048    7.1602    5.1127 H         1 <0>         0.0820
     39 H4         -8.7286    5.5089    2.7659 H         1 <0>         0.1278
     40 H5         -8.2989    3.2535    1.8762 H         1 <0>         0.1338
     41 H6         -4.2559    3.4967    3.2118 H         1 <0>         0.1360
     42 H7         -4.6833    5.7555    4.0942 H         1 <0>         0.1311
     43 H8         -6.0559    1.4151   -0.5428 H         1 <0>         0.4434
     44 H9         -3.0370    0.7181    0.3845 H         1 <0>         0.1511
     45 H10        -0.9029    4.2622   -0.7575 H         1 <0>         0.1736
     46 H11        -3.0260    5.4845   -0.9300 H         1 <0>         0.1384
     47 H12        -4.5647    6.3208    0.1534 H         1 <0>         0.1287
     48 H13        -4.6700    6.0860   -1.6244 H         1 <0>         0.0744
     49 H14        -7.0315    6.5438    0.2844 H         1 <0>         0.1374
     50 H15        -6.3515    7.7446   -0.8656 H         1 <0>         0.1413
     51 H16        -8.3396    6.6496   -1.7624 H         1 <0>         0.4587
     52 H17        -8.1295    4.5384   -0.5932 H         1 <0>         0.1375
     53 H18        -8.2348    4.3036   -2.3710 H         1 <0>         0.1442
     54 H19        -5.7668    4.0807   -2.5014 H         1 <0>         0.0749
     55 H20        -6.4468    2.8798   -1.3515 H         1 <0>         0.1271
     56 H21         1.3513    3.3694   -2.2329 H         1 <0>         0.0821
     57 H22         0.0595    4.0914   -1.2147 H         1 <0>         0.0876
     58 H23        -0.3665    2.9244   -2.5122 H         1 <0>         0.0704
     59 H24         2.6171    2.1303   -0.8162 H         1 <0>         0.1140
     60 H25         1.8883    1.0358    0.4076 H         1 <0>         0.1191
     61 H26         3.8530   -0.2828   -0.9200 H         1 <0>         0.4265
     62 H27         2.3163   -2.3378   -2.3547 H         1 <0>         0.0756
     63 H28         3.0450   -1.2433   -3.5785 H         1 <0>         0.0817
     64 H29         4.5933   -3.0985   -3.1304 H         1 <0>         0.0683
     65 H30         5.2873   -1.5784   -2.4716 H         1 <0>         0.0588
     66 H31         5.7311   -4.0095    0.2218 H         1 <0>         0.0906
     67 H32         6.6014   -2.8745   -0.8650 H         1 <0>         0.0441
     68 H33         5.9074   -4.3947   -1.5238 H         1 <0>         0.0446
     69 H34        -6.8719    6.2677   -2.7250 H         1 <0>         0.4489
@<TRIPOS>BOND
     1    1    2 1
     2    1   36 1
     3    1   37 1
     4    1   38 1
     5    2    7 ar
     6    2    3 ar
     7    3    4 ar
     8    3   39 1
     9    4    5 ar
    10    4   40 1
    11    5    6 ar
    12    5    8 1
    13    6    7 ar
    14    6   41 1
    15    7   42 1
    16    8    9 2
    17    8   10 2
    18    8   11 1
    19   11   12 1
    20   11   43 1
    21   12   17 ar
    22   12   13 ar
    23   13   14 ar
    24   13   44 1
    25   14   15 ar
    26   14   24 1
    27   15   16 ar
    28   15   45 1
    29   16   17 ar
    30   16   46 1
    31   17   18 1
    32   18   23 1
    33   18   19 1
    34   19   20 1
    35   19   47 1
    36   19   48 1
    37   20   21 1
    38   20   49 1
    39   20   50 1
    40   21   22 1
    41   21   51 1
    42   21   69 1
    43   22   23 1
    44   22   52 1
    45   22   53 1
    46   23   54 1
    47   23   55 1
    48   24   25 2
    49   24   26 am
    50   26   27 1
    51   26   28 1
    52   27   56 1
    53   27   57 1
    54   27   58 1
    55   28   29 1
    56   28   59 1
    57   28   60 1
    58   29   30 2
    59   29   31 am
    60   31   32 1
    61   31   61 1
    62   32   33 1
    63   32   62 1
    64   32   63 1
    65   33   34 1
    66   33   64 1
    67   33   65 1
    68   34   35 1
    69   35   66 1
    70   35   67 1
    71   35   68 1
@<TRIPOS>MOLECULE
ZINC39631541
   80    82     0     0     0
SMALL
USER_CHARGES

@<TRIPOS>ATOM
      1 C1          3.8593    1.3509   -2.7161 C.3       1 <0>        -0.1635
      2 C2          2.5820    1.2598   -1.8788 C.3       1 <0>         0.1414
      3 H1          2.0566    0.3349   -2.1170 H         1 <0>         0.0915
      4 C3          1.6795    2.4545   -2.1937 C.3       1 <0>        -0.1299
      5 C4          0.3679    2.3216   -1.4171 C.3       1 <0>        -0.1133
      6 C5         -0.5832    3.4481   -1.8259 C.3       1 <0>        -0.1451
      7 C6         -1.9168    3.2801   -1.0950 C.3       1 <0>         0.1264
      8 C7         -2.8429    4.4453   -1.4492 C.3       1 <0>        -0.1832
      9 C8         -2.5689    1.9629   -1.5201 C.3       1 <0>        -0.1426
     10 O1         -1.6882    3.2650    0.3155 O.3       1 <0>        -0.5595
     11 N1          2.9291    1.2717   -0.4556 N.am      1 <0>        -0.7222
     12 C9          3.2347    0.1194    0.1732 C.2       1 <0>         0.5151
     13 O2          3.3158   -0.9129   -0.4583 O.2       1 <0>        -0.5118
     14 C10         3.4755    0.1137    1.6608 C.3       1 <0>        -0.1168
     15 H2          2.8702    0.8797    2.1454 H         1 <0>         0.1187
     16 C11         3.1566   -1.2778    2.2520 C.3       1 <0>         0.0929
     17 N2          4.4627   -1.9769    2.2895 N.am      1 <0>        -0.6113
     18 C12         5.4287   -0.9314    2.7040 C.3       1 <0>         0.1085
     19 C13         4.9665    0.3389    1.9627 C.3       1 <0>        -0.0737
     20 C14         5.1462    1.5648    2.8530 C.3       1 <0>        -0.1336
     21 C15         6.6400    1.8026    3.0912 C.3       1 <0>        -0.0104
     22 N3          7.3168    2.0041    1.8044 N.4       1 <0>        -0.5043
     23 C16         7.2187    0.7860    0.9910 C.3       1 <0>        -0.0094
     24 C17         5.7494    0.5053    0.6638 C.3       1 <0>        -0.1469
     25 C18         4.7153   -3.2710    2.0103 C.2       1 <0>         0.5962
     26 O3          5.8365   -3.7172    2.1585 O.2       1 <0>        -0.5233
     27 C19         3.6306   -4.1465    1.5245 C.ar      1 <0>        -0.0583
     28 C20         2.3012   -3.8530    1.8376 C.ar      1 <0>        -0.2144
     29 C21         1.2873   -4.6742    1.3811 C.ar      1 <0>         0.1433
     30 C22         1.5902   -5.7934    0.6103 C.ar      1 <0>         0.0605
     31 C23         2.9143   -6.0884    0.2972 C.ar      1 <0>         0.1485
     32 C24         3.9314   -5.2669    0.7461 C.ar      1 <0>        -0.1718
     33 O4          3.2070   -7.1827   -0.4555 O.3       1 <0>        -0.2960
     34 C25         4.5865   -7.4254   -0.7387 C.3       1 <0>         0.0216
     35 O5          0.5916   -6.5994    0.1631 O.3       1 <0>        -0.3110
     36 C26        -0.0383   -6.2311   -1.0656 C.3       1 <0>         0.0362
     37 O6         -0.0072   -4.3890    1.6855 O.3       1 <0>        -0.2958
     38 C27        -0.2567   -3.1607    2.3719 C.3       1 <0>         0.0226
     39 H3          4.5022    0.4997   -2.4918 H         1 <0>         0.0592
     40 H4          3.6010    1.3420   -3.7750 H         1 <0>         0.0708
     41 H5          4.3846    2.2757   -2.4780 H         1 <0>         0.0535
     42 H6          2.1825    3.3766   -1.9022 H         1 <0>         0.0662
     43 H7          1.4680    2.4784   -3.2627 H         1 <0>         0.0817
     44 H8         -0.0913    1.3589   -1.6417 H         1 <0>         0.0664
     45 H9          0.5704    2.3870   -0.3481 H         1 <0>         0.0665
     46 H10        -0.1427    4.4094   -1.5617 H         1 <0>         0.0632
     47 H11        -0.7514    3.4091   -2.9022 H         1 <0>         0.0730
     48 H12        -3.0842    4.4076   -2.5115 H         1 <0>         0.0679
     49 H13        -3.7603    4.3707   -0.8653 H         1 <0>         0.0667
     50 H14        -2.3439    5.3876   -1.2231 H         1 <0>         0.0579
     51 H15        -1.9709    1.1274   -1.1562 H         1 <0>         0.0632
     52 H16        -3.5725    1.9019   -1.0992 H         1 <0>         0.0631
     53 H17        -2.6279    1.9210   -2.6077 H         1 <0>         0.0703
     54 H18        -1.3458    4.0981    0.6674 H         1 <0>         0.3728
     55 H19         2.9390    2.1089    0.0342 H         1 <0>         0.3966
     56 H20         2.7495   -1.1789    3.2583 H         1 <0>         0.0918
     57 H21         2.4575   -1.8127    1.6092 H         1 <0>         0.1153
     58 H22         5.3846   -0.7787    3.7823 H         1 <0>         0.0870
     59 H23         6.4388   -1.2041    2.3984 H         1 <0>         0.0894
     60 H24         4.7125    2.4368    2.3633 H         1 <0>         0.0976
     61 H25         4.6476    1.3974    3.8077 H         1 <0>         0.1225
     62 H26         6.7720    2.6878    3.7134 H         1 <0>         0.1405
     63 H27         7.0695    0.9371    3.5958 H         1 <0>         0.1334
     64 H28         6.8816    2.7707    1.3134 H         1 <0>         0.4272
     65 H29         7.7774    0.9218    0.0650 H         1 <0>         0.1382
     66 H30         7.6344   -0.0553    1.5455 H         1 <0>         0.1345
     67 H31         5.6760   -0.4091    0.0751 H         1 <0>         0.1225
     68 H32         5.3375    1.3390    0.0951 H         1 <0>         0.0969
     69 H33         2.0658   -2.9853    2.4361 H         1 <0>         0.1480
     70 H34         4.9581   -5.4935    0.4990 H         1 <0>         0.1466
     71 H35         5.0005   -6.5764   -1.2826 H         1 <0>         0.0578
     72 H36         5.1312   -7.5587    0.1960 H         1 <0>         0.0617
     73 H37         4.6799   -8.3261   -1.3453 H         1 <0>         0.1088
     74 H38        -0.7538   -7.0018   -1.3523 H         1 <0>         0.0980
     75 H39        -0.5587   -5.2821   -0.9368 H         1 <0>         0.0472
     76 H40         0.7170   -6.1285   -1.8447 H         1 <0>         0.0460
     77 H41         0.2110   -3.1928    3.3559 H         1 <0>         0.0582
     78 H42         0.1602   -2.3328    1.7984 H         1 <0>         0.0530
     79 H43        -1.3316   -3.0195    2.4849 H         1 <0>         0.1091
     80 H44         8.2887    2.2208    1.9673 H         1 <0>         0.4345
@<TRIPOS>BOND
     1    1    2 1
     2    1   39 1
     3    1   40 1
     4    1   41 1
     5    2    3 1
     6    2    4 1
     7    2   11 1
     8    4    5 1
     9    4   42 1
    10    4   43 1
    11    5    6 1
    12    5   44 1
    13    5   45 1
    14    6    7 1
    15    6   46 1
    16    6   47 1
    17    7    8 1
    18    7    9 1
    19    7   10 1
    20    8   48 1
    21    8   49 1
    22    8   50 1
    23    9   51 1
    24    9   52 1
    25    9   53 1
    26   10   54 1
    27   11   12 am
    28   11   55 1
    29   12   13 2
    30   12   14 1
    31   14   15 1
    32   14   19 1
    33   14   16 1
    34   16   17 1
    35   16   56 1
    36   16   57 1
    37   17   18 1
    38   17   25 am
    39   18   19 1
    40   18   58 1
    41   18   59 1
    42   19   24 1
    43   19   20 1
    44   20   21 1
    45   20   60 1
    46   20   61 1
    47   21   22 1
    48   21   62 1
    49   21   63 1
    50   22   23 1
    51   22   64 1
    52   22   80 1
    53   23   24 1
    54   23   65 1
    55   23   66 1
    56   24   67 1
    57   24   68 1
    58   25   26 2
    59   25   27 1
    60   27   32 ar
    61   27   28 ar
    62   28   29 ar
    63   28   69 1
    64   29   30 ar
    65   29   37 1
    66   30   31 ar
    67   30   35 1
    68   31   32 ar
    69   31   33 1
    70   32   70 1
    71   33   34 1
    72   34   71 1
    73   34   72 1
    74   34   73 1
    75   35   36 1
    76   36   74 1
    77   36   75 1
    78   36   76 1
    79   37   38 1
    80   38   77 1
    81   38   78 1
    82   38   79 1
@<TRIPOS>MOLECULE
ZINC43213934
   66    68     0     0     0
SMALL
USER_CHARGES

@<TRIPOS>ATOM
      1 C1          0.0095    1.5045    0.0175 C.3       1 <0>        -0.1605
      2 C2          0.0211   -0.0254    0.0040 C.3       1 <0>        -0.1315
      3 C3         -1.4174   -0.5464    0.0166 C.3       1 <0>        -0.1137
      4 H1         -1.9697   -0.1085   -0.8149 H         1 <0>         0.1045
      5 C4         -2.0888   -0.1584    1.3355 C.3       1 <0>        -0.1524
      6 C5         -1.4092   -2.0700   -0.1226 C.3       1 <0>         0.1521
      7 H2         -0.8569   -2.5079    0.7088 H         1 <0>         0.1827
      8 C6         -2.8261   -2.5832   -0.1102 C.2       1 <0>         0.1191
      9 N1         -3.3998   -3.1842    0.8888 N.2       1 <0>        -0.3964
     10 C7         -4.6740   -3.4980    0.5291 C.2       1 <0>        -0.0564
     11 C8         -4.8503   -3.0563   -0.7460 C.2       1 <0>         0.0663
     12 O1         -3.6955   -2.4866   -1.1260 O.3       1 <0>        -0.1953
     13 C9         -5.6750   -4.1874    1.3635 C.2       1 <0>         0.6049
     14 O2         -6.7858   -4.4100    0.9213 O.2       1 <0>        -0.4860
     15 N2         -5.3591   -4.5708    2.6163 N.am      1 <0>        -0.6963
     16 C10        -6.3538   -5.2558    3.4454 C.3       1 <0>         0.1525
     17 H3         -7.3446   -4.8565    3.2287 H         1 <0>         0.1357
     18 C11        -6.3294   -6.7544    3.1378 C.3       1 <0>        -0.1256
     19 S1         -6.7176   -7.0183    1.3856 S.3       1 <0>        -0.1705
     20 C12        -6.6486   -8.8202    1.1874 C.3       1 <0>        -0.0738
     21 C13        -6.9563   -9.1803   -0.2432 C.ar      1 <0>        -0.0743
     22 C14        -8.2622   -9.4142   -0.6315 C.ar      1 <0>        -0.0993
     23 C15        -8.5445   -9.7446   -1.9437 C.ar      1 <0>        -0.1163
     24 C16        -7.5210   -9.8406   -2.8678 C.ar      1 <0>        -0.1122
     25 C17        -6.2151   -9.6059   -2.4798 C.ar      1 <0>        -0.1210
     26 C18        -5.9333   -9.2713   -1.1684 C.ar      1 <0>        -0.1050
     27 C19        -6.0313   -5.0366    4.9011 C.2       1 <0>         0.5228
     28 O3         -5.0656   -4.3733    5.2151 O.2       1 <0>        -0.4982
     29 N3         -6.8160   -5.5774    5.8541 N.am      1 <0>        -0.6649
     30 C20        -6.4634   -5.4560    7.2027 C.ar      1 <0>         0.1915
     31 C21        -6.7297   -6.4927    8.0876 C.ar      1 <0>        -0.1396
     32 C22        -6.3805   -6.3698    9.4182 C.ar      1 <0>        -0.0317
     33 C23        -5.7663   -5.2160    9.8696 C.ar      1 <0>        -0.0604
     34 C24        -5.5002   -4.1818    8.9911 C.ar      1 <0>        -0.0333
     35 C25        -5.8413   -4.3010    7.6581 C.ar      1 <0>        -0.1216
     36 N4         -5.3934   -5.0876   11.2963 N.pl3     1 <0>         0.0322
     37 O4         -5.6258   -5.9909   12.0655 O.2       1 <0>        -0.1536
     38 O5         -4.8564   -4.0795   11.6923 O.3       1 <0>        -0.1549
     39 N5         -0.7646   -2.4425   -1.3890 N.4       1 <0>        -0.6375
     40 H4          1.0343    1.8757    0.0085 H         1 <0>         0.0706
     41 H5         -0.5176    1.8717   -0.8630 H         1 <0>         0.0620
     42 H6         -0.4964    1.8561    0.9168 H         1 <0>         0.0695
     43 H7          0.5270   -0.3769   -0.8953 H         1 <0>         0.0594
     44 H8          0.5482   -0.3926    0.8845 H         1 <0>         0.0872
     45 H9         -2.0946    0.9271    1.4347 H         1 <0>         0.0863
     46 H10        -3.1136   -0.5295    1.3445 H         1 <0>         0.0638
     47 H11        -1.5365   -0.5962    2.1670 H         1 <0>         0.0756
     48 H12        -5.7493   -3.1437   -1.3380 H         1 <0>         0.2484
     49 H13        -4.4731   -4.3933    2.9690 H         1 <0>         0.4195
     50 H14        -5.3386   -7.1537    3.3546 H         1 <0>         0.0924
     51 H15        -7.0695   -7.2641    3.7547 H         1 <0>         0.1003
     52 H16        -5.6511   -9.1761    1.4452 H         1 <0>         0.0864
     53 H17        -7.3820   -9.2864    1.8453 H         1 <0>         0.0906
     54 H18        -9.0619   -9.3391    0.0905 H         1 <0>         0.1249
     55 H19        -9.5647   -9.9280   -2.2469 H         1 <0>         0.1270
     56 H20        -7.7414  -10.0994   -3.8929 H         1 <0>         0.1251
     57 H21        -5.4154   -9.6813   -3.2017 H         1 <0>         0.1232
     58 H22        -4.9135   -9.0843   -0.8661 H         1 <0>         0.1188
     59 H23        -7.6252   -6.0508    5.6050 H         1 <0>         0.4227
     60 H24        -7.2097   -7.3939    7.7357 H         1 <0>         0.1530
     61 H25        -6.5877   -7.1755   10.1069 H         1 <0>         0.1616
     62 H26        -5.0207   -3.2818    9.3468 H         1 <0>         0.1593
     63 H27        -5.6286   -3.4949    6.9715 H         1 <0>         0.1608
     64 H28        -0.7592   -3.4473   -1.4808 H         1 <0>         0.4428
     65 H29        -1.2759   -2.0372   -2.1587 H         1 <0>         0.4405
     66 H30         0.1841   -2.0990   -1.3973 H         1 <0>         0.4462
@<TRIPOS>BOND
     1    1    2 1
     2    1   40 1
     3    1   41 1
     4    1   42 1
     5    2    3 1
     6    2   43 1
     7    2   44 1
     8    3    4 1
     9    3    5 1
    10    3    6 1
    11    5   45 1
    12    5   46 1
    13    5   47 1
    14    6    7 1
    15    6    8 1
    16    6   39 1
    17    8   12 1
    18    8    9 2
    19    9   10 1
    20   10   11 2
    21   10   13 1
    22   11   12 1
    23   11   48 1
    24   13   14 2
    25   13   15 am
    26   15   16 1
    27   15   49 1
    28   16   17 1
    29   16   18 1
    30   16   27 1
    31   18   19 1
    32   18   50 1
    33   18   51 1
    34   19   20 1
    35   20   21 1
    36   20   52 1
    37   20   53 1
    38   21   26 ar
    39   21   22 ar
    40   22   23 ar
    41   22   54 1
    42   23   24 ar
    43   23   55 1
    44   24   25 ar
    45   24   56 1
    46   25   26 ar
    47   25   57 1
    48   26   58 1
    49   27   28 2
    50   27   29 am
    51   29   30 1
    52   29   59 1
    53   30   35 ar
    54   30   31 ar
    55   31   32 ar
    56   31   60 1
    57   32   33 ar
    58   32   61 1
    59   33   34 ar
    60   33   36 1
    61   34   35 ar
    62   34   62 1
    63   35   63 1
    64   36   37 2
    65   36   38 1
    66   39   64 1
    67   39   65 1
    68   39   66 1
@<TRIPOS>MOLECULE
ZINC63514452
   71    75     0     0     0
SMALL
USER_CHARGES

@<TRIPOS>ATOM
      1 C1          0.8742    1.4989    0.0758 C.3       1 <0>        -0.1759
      2 C2          0.7631   -0.0269    0.0576 C.3       1 <0>         0.1371
      3 N1          1.2855   -0.5395   -1.2114 N.pl3     1 <0>        -0.6299
      4 C3          0.4908   -0.7424   -2.4257 C.3       1 <0>         0.1297
      5 C4          1.4803   -1.2880   -3.4684 C.3       1 <0>        -0.0245
      6 H1          1.5488   -0.6100   -4.3191 H         1 <0>         0.0985
      7 C5          2.8030   -1.3539   -2.7384 C.ar      1 <0>        -0.1725
      8 C6          2.6140   -0.9003   -1.4420 C.ar      1 <0>         0.2037
      9 C7          3.7049   -0.8635   -0.5712 C.ar      1 <0>        -0.1797
     10 C8          4.9509   -1.2688   -1.0002 C.ar      1 <0>        -0.0669
     11 C9          5.1295   -1.7154   -2.2965 C.ar      1 <0>        -0.1721
     12 C10         4.0523   -1.7635   -3.1621 C.ar      1 <0>        -0.0517
     13 C11         1.0596   -2.6614   -3.9244 C.2       1 <0>        -0.0892
     14 C12         0.6837   -2.8584   -5.1904 C.2       1 <0>         0.0761
     15 C13         0.1610   -4.1734   -5.6087 C.2       1 <0>         0.5586
     16 O1         -0.1812   -4.3529   -6.7615 O.2       1 <0>        -0.5059
     17 N2          0.0630   -5.1756   -4.7128 N.am      1 <0>        -0.7325
     18 C14        -0.4559   -6.4811   -5.1281 C.3       1 <0>         0.1292
     19 C15        -0.4627   -7.4320   -3.9294 C.3       1 <0>        -0.1060
     20 C16        -0.9965   -8.7750   -4.3566 C.2       1 <0>         0.0710
     21 C17        -0.2745   -9.8521   -4.7411 C.ar      1 <0>        -0.1668
     22 C18         1.1685  -10.0865   -4.8727 C.ar      1 <0>        -0.0113
     23 C19         1.6008  -11.2975   -5.2917 C.ar      1 <0>        -0.1510
     24 C20         0.7075  -12.3318   -5.6031 C.ar      1 <0>         0.0560
     25 C21        -0.6317  -12.1924   -5.5069 C.ar      1 <0>        -0.2108
     26 C22        -1.1969  -10.9607   -5.0756 C.ar      1 <0>         0.3281
     27 N3         -2.4407  -10.5835   -4.9046 N.pl3     1 <0>        -0.5855
     28 C23        -2.4478   -9.1932   -4.4359 C.3       1 <0>         0.0607
     29 N4          0.7855   -1.8172   -6.1212 N.am      1 <0>        -0.6713
     30 C24         1.5218   -1.9813   -7.2381 C.2       1 <0>         0.5779
     31 O2          2.1693   -2.9985   -7.3955 O.2       1 <0>        -0.5134
     32 C25         1.5421   -0.9266   -8.2701 C.ar      1 <0>        -0.1808
     33 C26         0.8033    0.2456   -8.0885 C.ar      1 <0>        -0.0443
     34 C27         0.8249    1.2273   -9.0539 C.ar      1 <0>        -0.1589
     35 C28         1.5803    1.0536  -10.2076 C.ar      1 <0>         0.1623
     36 C29         2.3163   -0.1110  -10.3922 C.ar      1 <0>        -0.2173
     37 C30         2.3049   -1.0948   -9.4289 C.ar      1 <0>        -0.0113
     38 O3          1.5990    2.0236  -11.1567 O.3       1 <0>        -0.3105
     39 C31         2.3961    1.7802  -12.3174 C.3       1 <0>         0.0226
     40 H2          1.9197    1.7884   -0.0302 H         1 <0>         0.0591
     41 H3          0.2965    1.9151   -0.7496 H         1 <0>         0.0569
     42 H4          0.4855    1.8803    1.0200 H         1 <0>         0.0680
     43 H5          1.3408   -0.4431    0.8830 H         1 <0>         0.0760
     44 H6         -0.2824   -0.3164    0.1636 H         1 <0>         0.0760
     45 H7         -0.3025   -1.4669   -2.2419 H         1 <0>         0.0701
     46 H8          0.0688    0.2040   -2.7639 H         1 <0>         0.0725
     47 H9          3.5721   -0.5157    0.4426 H         1 <0>         0.1175
     48 H10         5.7904   -1.2370   -0.3215 H         1 <0>         0.1244
     49 H11         6.1067   -2.0320   -2.6301 H         1 <0>         0.1228
     50 H12         4.1904   -2.1108   -4.1754 H         1 <0>         0.1178
     51 H13         1.0620   -3.4862   -3.2272 H         1 <0>         0.1336
     52 H14         0.3360   -5.0324   -3.7931 H         1 <0>         0.4040
     53 H15        -1.4719   -6.3650   -5.5055 H         1 <0>         0.0792
     54 H16         0.1788   -6.8913   -5.9136 H         1 <0>         0.0810
     55 H17         0.5532   -7.5481   -3.5520 H         1 <0>         0.1171
     56 H18        -1.0974   -7.0218   -3.1439 H         1 <0>         0.1194
     57 H19         1.8744   -9.3034   -4.6388 H         1 <0>         0.1613
     58 H20         2.6621  -11.4721   -5.3893 H         1 <0>         0.1584
     59 H21         1.1071  -13.2791   -5.9339 H         1 <0>         0.1612
     60 H22        -1.2774  -13.0205   -5.7592 H         1 <0>         0.1607
     61 H23        -2.9116   -9.1287   -3.4516 H         1 <0>         0.1750
     62 H24        -2.9823   -8.5623   -5.1459 H         1 <0>         0.1743
     63 H25         0.3262   -0.9778   -5.9621 H         1 <0>         0.4098
     64 H26         0.2158    0.3811   -7.1925 H         1 <0>         0.1305
     65 H27         0.2538    2.1333   -8.9145 H         1 <0>         0.1406
     66 H28         2.9017   -0.2423  -11.2903 H         1 <0>         0.1384
     67 H29         2.8811   -1.9972   -9.5707 H         1 <0>         0.1395
     68 H30         3.4358    1.6400  -12.0214 H         1 <0>         0.0608
     69 H31         2.0381    0.8831  -12.8225 H         1 <0>         0.0602
     70 H32         2.3226    2.6318  -12.9938 H         1 <0>         0.1064
     71 H33        -3.2251  -11.1330   -5.0584 H         1 <0>         0.4560
@<TRIPOS>BOND
     1    1    2 1
     2    1   40 1
     3    1   41 1
     4    1   42 1
     5    2    3 1
     6    2   43 1
     7    2   44 1
     8    3    8 1
     9    3    4 1
    10    4    5 1
    11    4   45 1
    12    4   46 1
    13    5    6 1
    14    5    7 1
    15    5   13 1
    16    7   12 ar
    17    7    8 ar
    18    8    9 ar
    19    9   10 ar
    20    9   47 1
    21   10   11 ar
    22   10   48 1
    23   11   12 ar
    24   11   49 1
    25   12   50 1
    26   13   14 2
    27   13   51 1
    28   14   15 1
    29   14   29 1
    30   15   16 2
    31   15   17 am
    32   17   18 1
    33   17   52 1
    34   18   19 1
    35   18   53 1
    36   18   54 1
    37   19   20 1
    38   19   55 1
    39   19   56 1
    40   20   28 1
    41   20   21 2
    42   21   26 ar
    43   21   22 ar
    44   22   23 ar
    45   22   57 1
    46   23   24 ar
    47   23   58 1
    48   24   25 ar
    49   24   59 1
    50   25   26 ar
    51   25   60 1
    52   26   27 2
    53   27   28 1
    54   27   71 1
    55   28   61 1
    56   28   62 1
    57   29   30 am
    58   29   63 1
    59   30   31 2
    60   30   32 1
    61   32   37 ar
    62   32   33 ar
    63   33   34 ar
    64   33   64 1
    65   34   35 ar
    66   34   65 1
    67   35   36 ar
    68   35   38 1
    69   36   37 ar
    70   36   66 1
    71   37   67 1
    72   38   39 1
    73   39   68 1
    74   39   69 1
    75   39   70 1
@<TRIPOS>MOLECULE
ZINC12716020
   59    62     0     0     0
SMALL
USER_CHARGES
4-amino-N'-[(1S)-1-(4-fluorophenyl)-2-oxo-2-[[(2S)-tetrahydrofuran-2-yl]methylamino]ethyl]-N'-(2-thienylmethyl)isothiazole-3,5-dicarboxamide
@<TRIPOS>ATOM
      1 C1          6.0979    7.0089   -0.4821 C.2       1 <0>        -0.1667
      2 C2          4.7810    6.5963   -0.4037 C.2       1 <0>        -0.1154
      3 C3          4.5104    5.3401    0.0275 C.2       1 <0>        -0.1611
      4 S1          6.1460    4.6964    0.3398 S.3       1 <0>         0.0080
      5 C4          7.0798    6.1451   -0.1255 C.2       1 <0>        -0.1779
      6 C5          3.1752    4.6624    0.1985 C.3       1 <0>         0.1812
      7 N1          2.7565    4.0793   -1.0786 N.am      1 <0>        -0.5905
      8 C6          1.8036    4.7929   -1.9323 C.3       1 <0>         0.1842
      9 H1          2.1677    4.7959   -2.9597 H         1 <0>         0.1223
     10 C7          0.4646    4.1038   -1.8759 C.ar      1 <0>        -0.1147
     11 C8         -0.0572    3.7069   -0.6588 C.ar      1 <0>        -0.0661
     12 C9         -1.2872    3.0791   -0.6054 C.ar      1 <0>        -0.1504
     13 C10        -1.9922    2.8382   -1.7725 C.ar      1 <0>         0.1102
     14 C11        -1.4661    3.2314   -2.9914 C.ar      1 <0>        -0.1490
     15 C12        -0.2383    3.8637   -3.0419 C.ar      1 <0>        -0.0651
     16 F1         -3.1925    2.2204   -1.7220 F         1 <0>        -0.1370
     17 C13         1.6589    6.2121   -1.4465 C.2       1 <0>         0.5097
     18 O1          2.3881    6.6312   -0.5727 O.2       1 <0>        -0.5090
     19 N2          0.7193    7.0156   -1.9831 N.am      1 <0>        -0.7101
     20 C14         0.5787    8.3953   -1.5109 C.3       1 <0>         0.1267
     21 C15        -0.5515    9.0843   -2.2781 C.3       1 <0>         0.0597
     22 H2         -0.3828    9.0061   -3.3521 H         1 <0>         0.0771
     23 C16        -0.6614   10.5667   -1.8576 C.3       1 <0>        -0.1471
     24 C17        -2.1809   10.8462   -1.8606 C.3       1 <0>        -0.1558
     25 C18        -2.8095    9.4997   -2.2827 C.3       1 <0>         0.0442
     26 O2         -1.8258    8.5029   -1.9257 O.3       1 <0>        -0.3669
     27 C19         3.2479    2.8862   -1.4680 C.2       1 <0>         0.6297
     28 O3          2.8838    2.3918   -2.5189 O.2       1 <0>        -0.5265
     29 C20         4.2198    2.1849   -0.6268 C.2       1 <0>        -0.3904
     30 C21         4.9624    1.0355   -0.9028 C.2       1 <0>         0.2784
     31 C22         5.7910    0.6675    0.1573 C.2       1 <0>        -0.0245
     32 N3          5.7952    1.3943    1.2528 N.2       1 <0>        -0.4511
     33 S2          4.7767    2.5743    1.0192 S.3       1 <0>         0.4722
     34 C23         6.6532   -0.5237    0.0503 C.2       1 <0>         0.6012
     35 O4          6.6446   -1.1912   -0.9662 O.2       1 <0>        -0.5408
     36 N4          7.4510   -0.8727    1.0789 N.am      1 <0>        -0.8297
     37 N5          4.8852    0.3363   -2.0999 N.pl3     1 <0>        -0.8040
     38 H3          6.3409    8.0045   -0.8228 H         1 <0>         0.1256
     39 H4          3.9797    7.2647   -0.6822 H         1 <0>         0.1628
     40 H5          8.1494    6.2946   -0.1231 H         1 <0>         0.1758
     41 H6          3.2608    3.8746    0.9469 H         1 <0>         0.0668
     42 H7          2.4355    5.3939    0.5238 H         1 <0>         0.1606
     43 H8          0.4947    3.8913    0.2510 H         1 <0>         0.1296
     44 H9         -1.6966    2.7729    0.3459 H         1 <0>         0.1378
     45 H10        -2.0152    3.0443   -3.9024 H         1 <0>         0.1392
     46 H11         0.1724    4.1702   -3.9926 H         1 <0>         0.1361
     47 H12         0.1362    6.6804   -2.6820 H         1 <0>         0.4070
     48 H13         0.3462    8.3929   -0.4460 H         1 <0>         0.0830
     49 H14         1.5118    8.9333   -1.6778 H         1 <0>         0.0869
     50 H15        -0.2483   10.7121   -0.8594 H         1 <0>         0.0815
     51 H16        -0.1538   11.2069   -2.5790 H         1 <0>         0.0820
     52 H17        -2.5191   11.1298   -0.8640 H         1 <0>         0.0778
     53 H18        -2.4243   11.6264   -2.5819 H         1 <0>         0.0792
     54 H19        -3.7388    9.3279   -1.7396 H         1 <0>         0.0938
     55 H20        -2.9908    9.4858   -3.3574 H         1 <0>         0.0615
     56 H21         7.4579   -0.3403    1.8897 H         1 <0>         0.4121
     57 H22         8.0183   -1.6564    1.0085 H         1 <0>         0.4100
     58 H23         4.2896    0.6414   -2.8022 H         1 <0>         0.4165
     59 H24         5.4268   -0.4571   -2.2340 H         1 <0>         0.4195
@<TRIPOS>BOND
     1    1    5 2
     2    1    2 1
     3    1   38 1
     4    2    3 2
     5    2   39 1
     6    3    4 1
     7    3    6 1
     8    4    5 1
     9    5   40 1
    10    6    7 1
    11    6   41 1
    12    6   42 1
    13    7    8 1
    14    7   27 am
    15    8    9 1
    16    8   10 1
    17    8   17 1
    18   10   15 ar
    19   10   11 ar
    20   11   12 ar
    21   11   43 1
    22   12   13 ar
    23   12   44 1
    24   13   14 ar
    25   13   16 1
    26   14   15 ar
    27   14   45 1
    28   15   46 1
    29   17   18 2
    30   17   19 am
    31   19   20 1
    32   19   47 1
    33   20   21 1
    34   20   48 1
    35   20   49 1
    36   21   22 1
    37   21   26 1
    38   21   23 1
    39   23   24 1
    40   23   50 1
    41   23   51 1
    42   24   25 1
    43   24   52 1
    44   24   53 1
    45   25   26 1
    46   25   54 1
    47   25   55 1
    48   27   28 2
    49   27   29 1
    50   29   33 1
    51   29   30 2
    52   30   31 1
    53   30   37 1
    54   31   32 2
    55   31   34 1
    56   32   33 1
    57   34   35 2
    58   34   36 am
    59   36   56 1
    60   36   57 1
    61   37   58 1
    62   37   59 1
@<TRIPOS>MOLECULE
ZINC20831750
   65    68     0     0     0
SMALL
USER_CHARGES
3-[[5-((N'E)-N'-benzylidenehydrazino)-4H-1,2,4-triazol-3-yl]sulfanyl]-N-[4-(cyclohexylsulfamoyl)phenyl]propanamide
@<TRIPOS>ATOM
      1 C1          7.5761    5.6183   -0.0652 C.ar      1 <0>        -0.1003
      2 C2          6.6391    6.6363   -0.0417 C.ar      1 <0>        -0.1226
      3 C3          5.2925    6.3384   -0.0227 C.ar      1 <0>        -0.0869
      4 C4          4.8755    5.0049   -0.0267 C.ar      1 <0>        -0.0591
      5 C5          5.8274    3.9823   -0.0442 C.ar      1 <0>        -0.0817
      6 C6          7.1704    4.2954   -0.0698 C.ar      1 <0>        -0.1244
      7 C7          3.4379    4.6784   -0.0065 C.2       1 <0>         0.1234
      8 N1          3.0537    3.4379   -0.0104 N.2       1 <0>        -0.2516
      9 N2          1.6876    3.1277    0.0088 N.pl3     1 <0>        -0.5586
     10 C8          1.2771    1.8023    0.0047 C.2       1 <0>         0.5404
     11 N3         -0.0171    1.3618    0.0218 N.2       1 <0>        -0.5536
     12 C9          0.0015   -0.0039    0.0095 C.2       1 <0>         0.2234
     13 N4          1.2543   -0.3921   -0.0141 N.2       1 <0>        -0.3180
     14 N5          2.0621    0.7525   -0.0171 N.pl3     1 <0>        -0.4748
     15 S1         -1.4096   -1.0590    0.0221 S.3       1 <0>         0.0353
     16 C10        -0.7073   -2.7314   -0.0034 C.3       1 <0>        -0.1072
     17 C11        -1.8397   -3.7602    0.0051 C.3       1 <0>        -0.1250
     18 C12        -1.2563   -5.1495   -0.0161 C.2       1 <0>         0.5237
     19 O1         -0.0532   -5.3018   -0.0361 O.2       1 <0>        -0.5099
     20 N6         -2.0715   -6.2228   -0.0129 N.am      1 <0>        -0.6898
     21 C13        -1.5344   -7.5096   -0.1303 C.ar      1 <0>         0.2082
     22 C14        -2.2298   -8.4935   -0.8209 C.ar      1 <0>        -0.1667
     23 C15        -1.6943   -9.7610   -0.9398 C.ar      1 <0>        -0.0008
     24 C16        -0.4722  -10.0539   -0.3627 C.ar      1 <0>        -0.6990
     25 C17         0.2198   -9.0780    0.3309 C.ar      1 <0>         0.0014
     26 C18        -0.3076   -7.8070    0.4485 C.ar      1 <0>        -0.1461
     27 S2          0.2043  -11.6740   -0.5110 S.o2      1 <0>         2.6921
     28 O2         -0.3788  -12.2531   -1.6703 O.2       1 <0>        -0.9569
     29 O3          1.6101  -11.5435   -0.3495 O.2       1 <0>        -0.9598
     30 N7         -0.3411  -12.5527    0.7823 N.pl3     1 <0>        -1.1198
     31 C19        -1.7708  -12.8409    0.9215 C.3       1 <0>         0.1517
     32 C20        -2.4167  -11.7912    1.8281 C.3       1 <0>        -0.1444
     33 C21        -3.9098  -12.0922    1.9734 C.3       1 <0>        -0.1179
     34 C22        -4.0925  -13.4806    2.5899 C.3       1 <0>        -0.1235
     35 C23        -3.4465  -14.5302    1.6834 C.3       1 <0>        -0.1209
     36 C24        -1.9535  -14.2292    1.5380 C.3       1 <0>        -0.1189
     37 H1          8.6292    5.8575   -0.0804 H         1 <0>         0.1265
     38 H2          6.9630    7.6666   -0.0386 H         1 <0>         0.1294
     39 H3          4.5623    7.1339   -0.0050 H         1 <0>         0.1303
     40 H4          5.5122    2.9493   -0.0430 H         1 <0>         0.1293
     41 H5          7.9073    3.5060   -0.0883 H         1 <0>         0.1276
     42 H6          2.6908    5.4855    0.0119 H         1 <0>         0.1317
     43 H7          0.9405    3.9349    0.0271 H         1 <0>         0.4379
     44 H8         -0.1012   -2.8607   -0.9122 H         1 <0>         0.1032
     45 H9         -0.0734   -2.8765    0.8838 H         1 <0>         0.1032
     46 H10        -2.4458   -3.6308    0.9139 H         1 <0>         0.1137
     47 H11        -2.4736   -3.6151   -0.8821 H         1 <0>         0.1138
     48 H12        -3.1590   -6.0872    0.0820 H         1 <0>         0.4420
     49 H13        -3.1864   -8.2666   -1.2680 H         1 <0>         0.1366
     50 H14        -2.2323  -10.5253   -1.4809 H         1 <0>         0.1420
     51 H15         1.1738   -9.3100    0.7807 H         1 <0>         0.1420
     52 H16         0.2333   -7.0453    0.9903 H         1 <0>         0.1474
     53 H17         0.3477  -12.7732    1.6112 H         1 <0>         0.4403
     54 H18        -2.2088  -12.8042   -0.0869 H         1 <0>         0.0914
     55 H19        -1.9390  -11.8183    2.8186 H         1 <0>         0.0715
     56 H20        -2.2853  -10.7931    1.3849 H         1 <0>         0.0681
     57 H21        -4.3742  -11.3376    2.6252 H         1 <0>         0.0653
     58 H22        -4.3874  -12.0651    0.9829 H         1 <0>         0.0650
     59 H23        -3.6149  -13.5077    3.5804 H         1 <0>         0.0633
     60 H24        -5.1659  -13.6971    2.6944 H         1 <0>         0.0643
     61 H25        -3.5778  -15.5283    2.1267 H         1 <0>         0.0681
     62 H26        -3.9241  -14.5032    0.6929 H         1 <0>         0.0662
     63 H27        -1.4891  -14.9838    0.8862 H         1 <0>         0.0731
     64 H28        -1.4758  -14.2563    2.5285 H         1 <0>         0.0703
     65 H29         3.1542    0.8827   -0.0335 H         1 <0>         0.4748
@<TRIPOS>BOND
     1    1    6 ar
     2    1    2 ar
     3    1   37 1
     4    2    3 ar
     5    2   38 1
     6    3    4 ar
     7    3   39 1
     8    4    5 ar
     9    4    7 1
    10    5    6 ar
    11    5   40 1
    12    6   41 1
    13    7    8 2
    14    7   42 1
    15    8    9 1
    16    9   10 1
    17    9   43 1
    18   10   14 1
    19   10   11 2
    20   11   12 1
    21   12   13 2
    22   12   15 1
    23   13   14 1
    24   14   65 1
    25   15   16 1
    26   16   17 1
    27   16   44 1
    28   16   45 1
    29   17   18 1
    30   17   46 1
    31   17   47 1
    32   18   19 2
    33   18   20 am
    34   20   21 1
    35   20   48 1
    36   21   26 ar
    37   21   22 ar
    38   22   23 ar
    39   22   49 1
    40   23   24 ar
    41   23   50 1
    42   24   25 ar
    43   24   27 1
    44   25   26 ar
    45   25   51 1
    46   26   52 1
    47   27   28 2
    48   27   29 2
    49   27   30 1
    50   30   31 1
    51   30   53 1
    52   31   36 1
    53   31   32 1
    54   31   54 1
    55   32   33 1
    56   32   55 1
    57   32   56 1
    58   33   34 1
    59   33   57 1
    60   33   58 1
    61   34   35 1
    62   34   59 1
    63   34   60 1
    64   35   36 1
    65   35   61 1
    66   35   62 1
    67   36   63 1
    68   36   64 1
@<TRIPOS>MOLECULE
ZINC32666494
   67    70     0     0     0
SMALL
USER_CHARGES
[2-[(6-amino-1-benzyl-2,4-dioxo-pyrimidin-5-yl)-ethyl-amino]-2-oxo-ethyl] 2-ethyl-3-methyl-quinoline-4-carboxylate
@<TRIPOS>ATOM
      1 C1          0.4375   -7.8221    1.2916 C.3       1 <0>        -0.1482
      2 C2         -1.0856   -7.7156    1.1934 C.3       1 <0>        -0.0804
      3 C3         -1.4521   -6.7549    0.0917 C.ar      1 <0>         0.1656
      4 C4         -1.5985   -5.4028    0.3939 C.ar      1 <0>        -0.0818
      5 C5         -1.9409   -4.5086   -0.6125 C.ar      1 <0>        -0.0524
      6 C6         -2.1171   -5.0238   -1.9224 C.ar      1 <0>        -0.0673
      7 C7         -2.4567   -4.1889   -2.9947 C.ar      1 <0>        -0.1051
      8 C8         -2.6181   -4.7213   -4.2386 C.ar      1 <0>        -0.0982
      9 C9         -2.4479   -6.0867   -4.4586 C.ar      1 <0>        -0.0994
     10 C10        -2.1177   -6.9259   -3.4398 C.ar      1 <0>        -0.0845
     11 C11        -1.9435   -6.4127   -2.1412 C.ar      1 <0>         0.1301
     12 N1         -1.6188   -7.2142   -1.1234 N.ar      1 <0>        -0.4501
     13 C12        -2.1100   -3.0681   -0.3291 C.2       1 <0>         0.5232
     14 O1         -3.1999   -2.6352   -0.0129 O.2       1 <0>        -0.4811
     15 O2         -1.0553   -2.2350   -0.4216 O.3       1 <0>        -0.3207
     16 C13        -1.2950   -0.8331   -0.1292 C.3       1 <0>         0.0429
     17 C14        -0.0100   -0.0610   -0.2833 C.2       1 <0>         0.5042
     18 O3          1.0080   -0.6359   -0.6077 O.2       1 <0>        -0.4985
     19 N2          0.0084    1.2697   -0.0604 N.am      1 <0>        -0.5094
     20 C15        -1.2394    1.9817    0.2265 C.3       1 <0>         0.0988
     21 C16        -1.4614    2.0322    1.7395 C.3       1 <0>        -0.1738
     22 C17         1.2286    1.9764   -0.1095 C.2       1 <0>        -0.1712
     23 C18         2.2367    1.6995    0.7912 C.2       1 <0>         0.5135
     24 N3          3.4171    2.4015    0.7147 N.am      1 <0>        -0.5345
     25 C19         3.5827    3.3549   -0.2200 C.2       1 <0>         0.7146
     26 O4          4.6317    3.9681   -0.2678 O.2       1 <0>        -0.5362
     27 N4          2.6096    3.6419   -1.1027 N.am      1 <0>        -0.6737
     28 H1          2.7666    4.4249   -1.8592 H         1 <0>         0.4625
     29 C20         1.4364    2.9799   -1.0743 C.2       1 <0>         0.5705
     30 O5          0.5606    3.2481   -1.8794 O.2       1 <0>        -0.5285
     31 C21         4.4979    2.1141    1.6610 C.3       1 <0>         0.1467
     32 C22         4.3420    2.9849    2.8811 C.ar      1 <0>        -0.1256
     33 C23         4.9509    4.2251    2.9274 C.ar      1 <0>        -0.0858
     34 C24         4.8039    5.0259    4.0445 C.ar      1 <0>        -0.1195
     35 C25         4.0568    4.5821    5.1196 C.ar      1 <0>        -0.1051
     36 C26         3.4523    3.3397    5.0754 C.ar      1 <0>        -0.1205
     37 C27         3.5949    2.5411    3.9561 C.ar      1 <0>        -0.1030
     38 N5          2.0652    0.7302    1.7503 N.pl3     1 <0>        -0.8458
     39 C28        -1.3912   -4.9142    1.8044 C.3       1 <0>        -0.1202
     40 H2          0.7049   -8.5234    2.0958 H         1 <0>         0.0679
     41 H3          0.8608   -6.8313    1.5133 H         1 <0>         0.0566
     42 H4          0.8418   -8.1882    0.3363 H         1 <0>         0.0615
     43 H5         -1.5089   -8.7064    0.9717 H         1 <0>         0.0903
     44 H6         -1.4899   -7.3495    2.1486 H         1 <0>         0.0871
     45 H7         -2.5913   -3.1291   -2.8362 H         1 <0>         0.1241
     46 H8         -2.8806   -4.0768   -5.0645 H         1 <0>         0.1337
     47 H9         -2.5805   -6.4852   -5.4536 H         1 <0>         0.1363
     48 H10        -1.9901   -7.9819   -3.6270 H         1 <0>         0.1419
     49 H11        -2.0471   -0.4364   -0.8270 H         1 <0>         0.1100
     50 H12        -1.6625   -0.7313    0.9026 H         1 <0>         0.1085
     51 H13        -1.1763    3.0061   -0.1693 H         1 <0>         0.0957
     52 H14        -2.0797    1.4556   -0.2501 H         1 <0>         0.0828
     53 H15        -2.3983    2.5668    1.9550 H         1 <0>         0.0759
     54 H16        -0.6211    2.5583    2.2160 H         1 <0>         0.0621
     55 H17        -1.5244    1.0078    2.1352 H         1 <0>         0.0543
     56 H18         4.4537    1.0558    1.9577 H         1 <0>         0.1002
     57 H19         5.4674    2.3210    1.1842 H         1 <0>         0.1230
     58 H20         5.5382    4.5700    2.0892 H         1 <0>         0.1332
     59 H21         5.2765    5.9964    4.0792 H         1 <0>         0.1270
     60 H22         3.9457    5.2059    5.9942 H         1 <0>         0.1256
     61 H23         2.8689    2.9928    5.9155 H         1 <0>         0.1257
     62 H24         3.1230    1.5703    3.9217 H         1 <0>         0.1166
     63 H25         2.8731    0.5147    2.4651 H         1 <0>         0.4249
     64 H26         1.1201    0.1699    1.8032 H         1 <0>         0.4424
     65 H27        -1.5499   -3.8264    1.8427 H         1 <0>         0.0620
     66 H28        -0.3652   -5.1466    2.1258 H         1 <0>         0.0894
     67 H29        -2.1071   -5.4130    2.4742 H         1 <0>         0.0889
@<TRIPOS>BOND
     1    1    2 1
     2    1   40 1
     3    1   41 1
     4    1   42 1
     5    2    3 1
     6    2   43 1
     7    2   44 1
     8    3   12 ar
     9    3    4 ar
    10    4    5 ar
    11    4   39 1
    12    5    6 ar
    13    5   13 1
    14    6   11 ar
    15    6    7 ar
    16    7    8 ar
    17    7   45 1
    18    8    9 ar
    19    8   46 1
    20    9   10 ar
    21    9   47 1
    22   10   11 ar
    23   10   48 1
    24   11   12 ar
    25   13   14 2
    26   13   15 1
    27   15   16 1
    28   16   17 1
    29   16   49 1
    30   16   50 1
    31   17   18 2
    32   17   19 am
    33   19   20 1
    34   19   22 1
    35   20   21 1
    36   20   51 1
    37   20   52 1
    38   21   53 1
    39   21   54 1
    40   21   55 1
    41   22   29 1
    42   22   23 2
    43   23   24 1
    44   23   38 1
    45   24   25 am
    46   24   31 1
    47   25   26 2
    48   25   27 am
    49   27   28 1
    50   27   29 am
    51   29   30 2
    52   31   32 1
    53   31   56 1
    54   31   57 1
    55   32   37 ar
    56   32   33 ar
    57   33   34 ar
    58   33   58 1
    59   34   35 ar
    60   34   59 1
    61   35   36 ar
    62   35   60 1
    63   36   37 ar
    64   36   61 1
    65   37   62 1
    66   38   63 1
    67   38   64 1
    68   39   65 1
    69   39   66 1
    70   39   67 1
@<TRIPOS>MOLECULE
ZINC39766470
   65    67     0     0     0
SMALL
USER_CHARGES

@<TRIPOS>ATOM
      1 C1         -0.0187    1.5258    0.0104 C.3       1 <0>        -0.1444
      2 C2          0.0021   -0.0041    0.0020 C.3       1 <0>        -0.0491
      3 C3          0.7074   -0.4901   -1.2379 C.2       1 <0>         0.0830
      4 C4          0.0330   -0.7240   -2.3904 C.2       1 <0>        -0.2410
      5 S1          1.3648   -1.2587   -3.4526 S.3       1 <0>         0.2151
      6 C5          2.6182   -1.1304   -2.3367 C.2       1 <0>         0.2372
      7 N1          2.0104   -0.7017   -1.2516 N.2       1 <0>        -0.5417
      8 N2          3.9684   -1.4058   -2.5188 N.am      1 <0>        -0.6025
      9 C6          4.4129   -1.8359   -3.7162 C.2       1 <0>         0.5406
     10 O1          3.6348   -1.9826   -4.6349 O.2       1 <0>        -0.4826
     11 C7          5.8768   -2.1346   -3.9137 C.3       1 <0>        -0.1012
     12 H1          6.2690   -2.6319   -3.0266 H         1 <0>         0.1330
     13 C8          6.6375   -0.8272   -4.1437 C.3       1 <0>        -0.1483
     14 S2          6.0842   -3.2165   -5.3549 S.3       1 <0>         0.0804
     15 C9          7.8063   -3.5891   -5.3638 C.2       1 <0>         0.1482
     16 N3          8.7011   -3.1657   -4.5016 N.2       1 <0>        -0.2902
     17 N4          9.8588   -3.6312   -4.8096 N.2       1 <0>        -0.2453
     18 C10         9.7730   -4.3730   -5.8774 C.2       1 <0>         0.1760
     19 N5          8.4616   -4.3777   -6.2655 N.pl3     1 <0>        -0.4504
     20 C11         7.8811   -5.0802   -7.4125 C.3       1 <0>         0.0926
     21 C12         7.9249   -4.1715   -8.6426 C.3       1 <0>        -0.1722
     22 C13        10.9076   -5.0969   -6.5554 C.3       1 <0>         0.2455
     23 H2         10.5047   -5.8354   -7.2485 H         1 <0>         0.1174
     24 C14        11.7671   -4.0914   -7.3242 C.3       1 <0>         0.0699
     25 O2         12.1997   -3.0581   -6.4371 O.3       1 <0>        -0.5514
     26 N6         11.7289   -5.7708   -5.5467 N.am      1 <0>        -0.7099
     27 C15        12.4605   -6.8509   -5.8854 C.2       1 <0>         0.5708
     28 O3         12.4387   -7.2660   -7.0279 O.2       1 <0>        -0.5412
     29 C16        13.2880   -7.5300   -4.8691 C.ar      1 <0>        -0.1799
     30 C17        13.3099   -7.0580   -3.5541 C.ar      1 <0>        -0.0406
     31 C18        14.0829   -7.6945   -2.6088 C.ar      1 <0>        -0.1593
     32 C19        14.8411   -8.8048   -2.9614 C.ar      1 <0>         0.1591
     33 C20        14.8220   -9.2774   -4.2684 C.ar      1 <0>        -0.2194
     34 C21        14.0472   -8.6499   -5.2182 C.ar      1 <0>        -0.0134
     35 O4         15.6023   -9.4288   -2.0271 O.3       1 <0>        -0.3118
     36 C22        16.3566  -10.5637   -2.4573 C.3       1 <0>         0.0234
     37 C23        -1.4359   -0.5743   -2.6919 C.3       1 <0>        -0.0590
     38 H3          1.0039    1.9031    0.0027 H         1 <0>         0.0559
     39 H4         -0.5459    1.8868   -0.8726 H         1 <0>         0.0551
     40 H5         -0.5289    1.8773    0.9072 H         1 <0>         0.0621
     41 H6          0.5293   -0.3651    0.8851 H         1 <0>         0.0783
     42 H7         -1.0205   -0.3814    0.0098 H         1 <0>         0.0807
     43 H8          4.5907   -1.2885   -1.7840 H         1 <0>         0.4276
     44 H9          6.5128   -0.1771   -3.2777 H         1 <0>         0.0766
     45 H10         7.6963   -1.0432   -4.2865 H         1 <0>         0.0948
     46 H11         6.2452   -0.3299   -5.0308 H         1 <0>         0.0764
     47 H12         8.4524   -5.9872   -7.6103 H         1 <0>         0.1031
     48 H13         6.8466   -5.3434   -7.1918 H         1 <0>         0.1044
     49 H14         7.3535   -3.2645   -8.4448 H         1 <0>         0.0711
     50 H15         8.9594   -3.9083   -8.8633 H         1 <0>         0.0647
     51 H16         7.4930   -4.6941   -9.4960 H         1 <0>         0.0877
     52 H17        12.6364   -4.6002   -7.7408 H         1 <0>         0.0673
     53 H18        11.1801   -3.6545   -8.1321 H         1 <0>         0.0552
     54 H19        12.7506   -2.3837   -6.8576 H         1 <0>         0.3808
     55 H20        11.7463   -5.4397   -4.6352 H         1 <0>         0.4130
     56 H21        12.7216   -6.1949   -3.2795 H         1 <0>         0.1346
     57 H22        14.1003   -7.3303   -1.5922 H         1 <0>         0.1398
     58 H23        15.4125  -10.1404   -4.5384 H         1 <0>         0.1371
     59 H24        14.0297   -9.0202   -6.2326 H         1 <0>         0.1403
     60 H25        15.6787  -11.3267   -2.8400 H         1 <0>         0.0595
     61 H26        17.0475  -10.2634   -3.2451 H         1 <0>         0.0598
     62 H27        16.9189  -10.9668   -1.6150 H         1 <0>         0.1044
     63 H28        -1.6314    0.4347   -3.0549 H         1 <0>         0.0775
     64 H29        -1.7258   -1.2973   -3.4544 H         1 <0>         0.0732
     65 H30        -2.0130   -0.7522   -1.7844 H         1 <0>         0.0817
@<TRIPOS>BOND
     1    1    2 1
     2    1   38 1
     3    1   39 1
     4    1   40 1
     5    2    3 1
     6    2   41 1
     7    2   42 1
     8    3    7 1
     9    3    4 2
    10    4    5 1
    11    4   37 1
    12    5    6 1
    13    6    7 2
    14    6    8 1
    15    8    9 am
    16    8   43 1
    17    9   10 2
    18    9   11 1
    19   11   12 1
    20   11   13 1
    21   11   14 1
    22   13   44 1
    23   13   45 1
    24   13   46 1
    25   14   15 1
    26   15   19 1
    27   15   16 2
    28   16   17 1
    29   17   18 2
    30   18   19 1
    31   18   22 1
    32   19   20 1
    33   20   21 1
    34   20   47 1
    35   20   48 1
    36   21   49 1
    37   21   50 1
    38   21   51 1
    39   22   23 1
    40   22   24 1
    41   22   26 1
    42   24   25 1
    43   24   52 1
    44   24   53 1
    45   25   54 1
    46   26   27 am
    47   26   55 1
    48   27   28 2
    49   27   29 1
    50   29   34 ar
    51   29   30 ar
    52   30   31 ar
    53   30   56 1
    54   31   32 ar
    55   31   57 1
    56   32   33 ar
    57   32   35 1
    58   33   34 ar
    59   33   58 1
    60   34   59 1
    61   35   36 1
    62   36   60 1
    63   36   61 1
    64   36   62 1
    65   37   63 1
    66   37   64 1
    67   37   65 1
@<TRIPOS>MOLECULE
ZINC59886973
   61    64     0     0     0
SMALL
USER_CHARGES

@<TRIPOS>ATOM
      1 C1         -0.0187    1.5258    0.0104 C.3       1 <0>        -0.1522
      2 C2          0.0021   -0.0041    0.0020 C.3       1 <0>         0.0559
      3 O1         -1.3386   -0.4987    0.0122 O.3       1 <0>        -0.3452
      4 C3         -1.4971   -1.8382    0.0065 C.2       1 <0>         0.5313
      5 O2         -0.5226   -2.5659   -0.0067 O.2       1 <0>        -0.4936
      6 C4         -2.8425   -2.4162    0.0162 C.2       1 <0>        -0.2011
      7 C5         -3.5519   -2.7152   -1.2272 C.2       1 <0>        -0.0878
      8 C6         -4.7766   -3.2407   -1.0473 C.2       1 <0>        -0.2468
      9 S1         -4.9704   -3.3335    0.7145 S.3       1 <0>         0.3444
     10 C7         -3.4929   -2.7074    1.2021 C.2       1 <0>         0.0402
     11 N1         -3.0307   -2.5221    2.4957 N.am      1 <0>        -0.6139
     12 C8         -3.8055   -2.8653    3.5437 C.2       1 <0>         0.5354
     13 O3         -4.9071   -3.3362    3.3550 O.2       1 <0>        -0.4771
     14 C9         -3.3030   -2.6639    4.9501 C.3       1 <0>        -0.1625
     15 S2         -4.5658   -3.2179    6.1286 S.3       1 <0>         0.1250
     16 C10        -3.8371   -2.9210    7.7052 C.2       1 <0>         0.2152
     17 N2         -4.4069   -3.1834    8.8863 N.2       1 <0>        -0.5177
     18 C11        -3.5883   -2.8399    9.8589 C.2       1 <0>         0.5660
     19 N3         -2.4632   -2.3441    9.3009 N.pl3     1 <0>        -0.5048
     20 N4         -2.6456   -2.4122    7.9104 N.2       1 <0>        -0.3254
     21 N5         -3.8371   -2.9650   11.2127 N.pl3     1 <0>        -0.5509
     22 N6         -5.0542   -3.4999   11.6548 N.2       1 <0>        -0.2161
     23 C12        -5.2878   -3.6173   12.9256 C.2       1 <0>         0.1544
     24 C13        -6.5702   -4.1809   13.3913 C.2       1 <0>        -0.2080
     25 C14        -7.6284   -4.6378   12.5768 C.2       1 <0>         0.0964
     26 N7         -8.5864   -5.0626   13.3558 N.2       1 <0>        -0.2960
     27 N8         -8.1913   -4.8996   14.6885 N.pl3     1 <0>        -0.3625
     28 C15        -6.9539   -4.3641   14.7020 C.2       1 <0>         0.0990
     29 C16        -8.9848   -5.2546   15.8677 C.3       1 <0>         0.1354
     30 C17       -10.3458   -4.5594   15.7947 C.3       1 <0>         0.0499
     31 O4        -11.1199   -4.9057   16.9449 O.3       1 <0>        -0.3909
     32 C18       -12.4164   -4.3056   16.9752 C.3       1 <0>         0.0336
     33 C19        -5.4629   -3.5248   -2.3560 C.3       1 <0>        -0.0309
     34 C20        -4.6691   -2.7068   -3.3986 C.3       1 <0>        -0.1154
     35 C21        -3.2854   -2.5981   -2.7264 C.3       1 <0>        -0.0614
     36 H1          1.0039    1.9031    0.0027 H         1 <0>         0.0810
     37 H2         -0.5459    1.8868   -0.8726 H         1 <0>         0.0679
     38 H3         -0.5289    1.8773    0.9072 H         1 <0>         0.0666
     39 H4          0.5123   -0.3556   -0.8948 H         1 <0>         0.0692
     40 H5          0.5293   -0.3651    0.8851 H         1 <0>         0.0674
     41 H6         -2.1497   -2.1455    2.6466 H         1 <0>         0.4216
     42 H7         -2.3908   -3.2423    5.0964 H         1 <0>         0.1317
     43 H8         -3.0928   -1.6068    5.1130 H         1 <0>         0.1318
     44 H9         -3.1691   -2.6825   11.8568 H         1 <0>         0.3981
     45 H10        -4.5440   -3.3027   13.6426 H         1 <0>         0.1197
     46 H11        -7.6434   -4.6358   11.4969 H         1 <0>         0.1955
     47 H12        -6.3716   -4.1217   15.5787 H         1 <0>         0.1858
     48 H13        -9.1295   -6.3346   15.8965 H         1 <0>         0.0996
     49 H14        -8.4609   -4.9340   16.7682 H         1 <0>         0.1088
     50 H15       -10.2011   -3.4795   15.7658 H         1 <0>         0.0558
     51 H16       -10.8697   -4.8800   14.8942 H         1 <0>         0.0680
     52 H17       -12.9402   -4.6178   17.8786 H         1 <0>         0.0917
     53 H18       -12.3146   -3.2204   16.9708 H         1 <0>         0.0440
     54 H19       -12.9832   -4.6209   16.0992 H         1 <0>         0.0459
     55 H20        -5.4119   -4.5885   -2.5887 H         1 <0>         0.0865
     56 H21        -6.5002   -3.1918   -2.3213 H         1 <0>         0.0818
     57 H22        -4.6017   -3.2424   -4.3455 H         1 <0>         0.0854
     58 H23        -5.1122   -1.7211   -3.5405 H         1 <0>         0.0785
     59 H24        -2.8296   -1.6346   -2.9546 H         1 <0>         0.0736
     60 H25        -2.6393   -3.4104   -3.0595 H         1 <0>         0.0830
     61 H26        -1.6815   -2.0104    9.7685 H         1 <0>         0.4388
@<TRIPOS>BOND
     1    1    2 1
     2    1   36 1
     3    1   37 1
     4    1   38 1
     5    2    3 1
     6    2   39 1
     7    2   40 1
     8    3    4 1
     9    4    5 2
    10    4    6 1
    11    6   10 2
    12    6    7 1
    13    7   35 1
    14    7    8 2
    15    8    9 1
    16    8   33 1
    17    9   10 1
    18   10   11 1
    19   11   12 am
    20   11   41 1
    21   12   13 2
    22   12   14 1
    23   14   15 1
    24   14   42 1
    25   14   43 1
    26   15   16 1
    27   16   20 2
    28   16   17 1
    29   17   18 2
    30   18   19 1
    31   18   21 1
    32   19   20 1
    33   19   61 1
    34   21   22 1
    35   21   44 1
    36   22   23 2
    37   23   24 1
    38   23   45 1
    39   24   28 2
    40   24   25 1
    41   25   26 2
    42   25   46 1
    43   26   27 1
    44   27   28 1
    45   27   29 1
    46   28   47 1
    47   29   30 1
    48   29   48 1
    49   29   49 1
    50   30   31 1
    51   30   50 1
    52   30   51 1
    53   31   32 1
    54   32   52 1
    55   32   53 1
    56   32   54 1
    57   33   34 1
    58   33   55 1
    59   33   56 1
    60   34   35 1
    61   34   57 1
    62   34   58 1
    63   35   59 1
    64   35   60 1
@<TRIPOS>MOLECULE
ZINC10283758
   63    66     0     0     0
SMALL
USER_CHARGES
N-[[2-(diethylaminomethyl)phenyl]methyl]-2-[(oxoBLAHyl)methylsulfanyl]acetamide
@<TRIPOS>ATOM
      1 C1         -5.2842    1.6010  -15.5919 C.3       1 <0>        -0.1850
      2 C2         -5.9046    2.6740  -14.6948 C.3       1 <0>        -0.0132
      3 C3         -5.7115    1.2232  -12.7659 C.3       1 <0>        -0.0140
      4 C4         -7.2080    1.1695  -12.4520 C.3       1 <0>        -0.1886
      5 C5         -3.9261    2.7684  -13.3023 C.3       1 <0>         0.0377
      6 C6         -3.6393    4.2051  -13.6554 C.ar      1 <0>        -0.1414
      7 C7         -3.2351    4.5348  -14.9358 C.ar      1 <0>        -0.0904
      8 C8         -2.9725    5.8525  -15.2598 C.ar      1 <0>        -0.1019
      9 C9         -3.1140    6.8409  -14.3035 C.ar      1 <0>        -0.0842
     10 C10        -3.5231    6.5119  -13.0250 C.ar      1 <0>        -0.0897
     11 C11        -3.7808    5.1931  -12.6994 C.ar      1 <0>        -0.0937
     12 C12        -4.2218    4.8338  -11.3039 C.3       1 <0>         0.1585
     13 N1         -3.0780    4.3173  -10.5481 N.am      1 <0>        -0.7328
     14 C13        -3.2363    3.9300   -9.2669 C.2       1 <0>         0.5356
     15 O1         -4.3257    4.0091   -8.7397 O.2       1 <0>        -0.5019
     16 C14        -2.0597    3.3987   -8.4895 C.3       1 <0>        -0.1653
     17 S1         -2.5906    2.9662   -6.8097 S.3       1 <0>        -0.0672
     18 C15        -1.0793    2.3517   -6.0164 C.3       1 <0>        -0.0835
     19 C16        -1.3845    1.9524   -4.5957 C.2       1 <0>         0.4134
     20 N2         -0.3892    1.4612   -3.8133 N.am      1 <0>        -0.6323
     21 H1          0.5045    1.3743   -4.1800 H         1 <0>         0.4209
     22 C17        -0.6182    1.0919   -2.5387 C.2       1 <0>         0.5564
     23 O2          0.2847    0.6521   -1.8480 O.2       1 <0>        -0.5120
     24 C18        -1.9432    1.2247   -2.0098 C.2       1 <0>        -0.2262
     25 C19        -2.4190    0.8868   -0.6600 C.2       1 <0>        -0.0780
     26 C20        -3.7200    1.1051   -0.4025 C.2       1 <0>        -0.1900
     27 S2         -4.3842    1.7618   -1.9156 S.3       1 <0>         0.2003
     28 C21        -2.9030    1.7407   -2.8903 C.2       1 <0>         0.0926
     29 N3         -2.6016    2.0849   -4.1400 N.2       1 <0>        -0.4621
     30 C22        -4.0916    0.7277    1.0063 C.3       1 <0>        -0.0349
     31 C23        -2.7403    0.6398    1.7538 C.3       1 <0>        -0.1174
     32 C24        -1.7688    0.3141    0.6025 C.3       1 <0>        -0.0635
     33 H2         -5.6221    1.7455  -16.6181 H         1 <0>         0.1066
     34 H3         -4.1976    1.6786  -15.5529 H         1 <0>         0.0780
     35 H4         -5.5907    0.6147  -15.2438 H         1 <0>         0.0821
     36 H5         -6.9877    2.5525  -14.6790 H         1 <0>         0.1300
     37 H6         -5.6554    3.6613  -15.0837 H         1 <0>         0.1276
     38 H7         -5.4632    0.4440  -13.4865 H         1 <0>         0.1350
     39 H8         -5.1422    1.0658  -11.8499 H         1 <0>         0.1274
     40 H9         -7.7773    1.3207  -13.3691 H         1 <0>         0.0801
     41 H10        -7.4553    0.1968  -12.0269 H         1 <0>         0.1080
     42 H11        -7.4574    1.9528  -11.7362 H         1 <0>         0.0809
     43 H12        -3.4394    2.1126  -14.0243 H         1 <0>         0.1417
     44 H13        -3.5440    2.5564  -12.3037 H         1 <0>         0.1318
     45 H14        -3.1249    3.7627  -15.6829 H         1 <0>         0.1349
     46 H15        -2.6571    6.1101  -16.2601 H         1 <0>         0.1392
     47 H16        -2.9092    7.8706  -14.5568 H         1 <0>         0.1399
     48 H17        -3.6380    7.2846  -12.2791 H         1 <0>         0.1394
     49 H18        -4.9988    4.0710  -11.3535 H         1 <0>         0.0571
     50 H19        -4.6147    5.7210  -10.8073 H         1 <0>         0.0954
     51 H20        -2.2067    4.2541  -10.9698 H         1 <0>         0.4075
     52 H21        -1.2827    4.1615   -8.4399 H         1 <0>         0.1166
     53 H22        -1.6668    2.5116   -8.9861 H         1 <0>         0.1132
     54 H23        -0.3229    3.1365   -6.0188 H         1 <0>         0.1235
     55 H24        -0.7070    1.4866   -6.5650 H         1 <0>         0.1223
     56 H25        -4.7231    1.4962    1.4520 H         1 <0>         0.0848
     57 H26        -4.5997   -0.2365    1.0204 H         1 <0>         0.0909
     58 H27        -2.7529   -0.1619    2.4923 H         1 <0>         0.0886
     59 H28        -2.4884    1.5928    2.2191 H         1 <0>         0.0793
     60 H29        -1.6457   -0.7647    0.5069 H         1 <0>         0.0837
     61 H30        -0.8035    0.7890    0.7780 H         1 <0>         0.0806
     62 N4         -5.3890    2.5573  -13.3145 N.4       1 <0>        -0.3963
     63 H31        -5.8343    3.2747  -12.7304 H         1 <0>         0.4240
@<TRIPOS>BOND
     1    1    2 1
     2    1   33 1
     3    1   34 1
     4    1   35 1
     5    2   36 1
     6    2   37 1
     7    2   62 1
     8    3    4 1
     9    3   38 1
    10    3   39 1
    11    3   62 1
    12    4   40 1
    13    4   41 1
    14    4   42 1
    15    5    6 1
    16    5   43 1
    17    5   44 1
    18    5   62 1
    19    6   11 ar
    20    6    7 ar
    21    7    8 ar
    22    7   45 1
    23    8    9 ar
    24    8   46 1
    25    9   10 ar
    26    9   47 1
    27   10   11 ar
    28   10   48 1
    29   11   12 1
    30   12   13 1
    31   12   49 1
    32   12   50 1
    33   13   14 am
    34   13   51 1
    35   14   15 2
    36   14   16 1
    37   16   17 1
    38   16   52 1
    39   16   53 1
    40   17   18 1
    41   18   19 1
    42   18   54 1
    43   18   55 1
    44   19   29 2
    45   19   20 1
    46   20   21 1
    47   20   22 am
    48   22   23 2
    49   22   24 1
    50   24   28 2
    51   24   25 1
    52   25   32 1
    53   25   26 2
    54   26   27 1
    55   26   30 1
    56   27   28 1
    57   28   29 1
    58   30   31 1
    59   30   56 1
    60   30   57 1
    61   31   32 1
    62   31   58 1
    63   31   59 1
    64   32   60 1
    65   32   61 1
    66   62   63 1
@<TRIPOS>MOLECULE
ZINC22920908
   71    75     0     0     0
SMALL
USER_CHARGES

@<TRIPOS>ATOM
      1 C1          1.7558   -0.1464    0.6833 C.3       1 <0>         0.0745
      2 N1          1.2219   -0.9077   -0.4488 N.pl3     1 <0>        -0.4824
      3 C2          1.1661   -2.2730   -0.5216 C.2       1 <0>         0.0692
      4 C3          0.6218   -2.6472   -1.6902 C.2       1 <0>        -0.1795
      5 C4          0.3028   -1.4213   -2.4261 C.ar      1 <0>        -0.0864
      6 C5          0.6962   -0.3559   -1.5955 C.ar      1 <0>         0.0940
      7 C6          0.5096    0.9519   -2.0305 C.ar      1 <0>        -0.1260
      8 C7         -0.0590    1.1886   -3.2631 C.ar      1 <0>        -0.0963
      9 C8         -0.4487    0.1342   -4.0771 C.ar      1 <0>        -0.1431
     10 C9         -0.2669   -1.1587   -3.6731 C.ar      1 <0>        -0.0682
     11 C10         0.3843   -4.0603   -2.1568 C.3       1 <0>         0.1284
     12 N2         -1.0487   -4.3709   -2.0683 N.3       1 <0>        -0.5112
     13 C11        -1.4547   -4.6042   -0.6659 C.3       1 <0>         0.0260
     14 C12        -2.0732   -6.0182   -0.6005 C.3       1 <0>        -0.1657
     15 C13        -2.5087   -6.2729   -2.0762 C.3       1 <0>         0.0185
     16 H1         -2.5559   -7.3373   -2.3060 H         1 <0>         0.1599
     17 C14        -1.3737   -5.5804   -2.8362 C.3       1 <0>         0.0503
     18 H2         -0.5064   -6.2349   -2.7490 H         1 <0>         0.1206
     19 C15        -1.5693   -5.3647   -4.2677 C.2       1 <0>         0.5240
     20 O1         -0.5797   -5.6142   -4.9229 O.2       1 <0>        -0.5278
     21 N3         -2.5760   -4.9625   -4.9983 N.am      1 <0>        -0.7021
     22 C16        -3.9523   -4.7608   -4.5879 C.3       1 <0>         0.0890
     23 C17        -4.3806   -5.7898   -3.5696 C.3       1 <0>        -0.0015
     24 H3         -4.1170   -6.7795   -3.9425 H         1 <0>         0.1393
     25 N4         -3.7895   -5.6304   -2.2728 N.4       1 <0>        -0.3626
     26 C18        -4.7190   -6.1401   -1.2558 C.3       1 <0>        -0.0794
     27 C19        -5.9006   -5.7173   -3.4109 C.3       1 <0>        -0.1345
     28 C20        -6.5679   -5.9951   -4.7594 C.3       1 <0>        -0.1466
     29 C21        -8.0636   -6.0392   -4.5802 C.2       1 <0>         0.5133
     30 O2         -8.5481   -5.8656   -3.4820 O.2       1 <0>        -0.5376
     31 N5         -8.8627   -6.2716   -5.6403 N.am      1 <0>        -0.7214
     32 C22       -10.3167   -6.3145   -5.4660 C.3       1 <0>         0.1631
     33 C23       -10.9740   -6.5881   -6.7942 C.ar      1 <0>        -0.1322
     34 C24       -11.3302   -5.5367   -7.6181 C.ar      1 <0>        -0.0693
     35 C25       -11.9326   -5.7864   -8.8366 C.ar      1 <0>        -0.1547
     36 C26       -12.1793   -7.0902   -9.2321 C.ar      1 <0>         0.1151
     37 C27       -11.8221   -8.1424   -8.4060 C.ar      1 <0>        -0.1548
     38 C28       -11.2150   -7.8905   -7.1903 C.ar      1 <0>        -0.0696
     39 F1        -12.7685   -7.3354  -10.4228 F         1 <0>        -0.1328
     40 H4          0.9561    0.0529    1.3966 H         1 <0>         0.0724
     41 H5          2.5419   -0.7232    1.1707 H         1 <0>         0.0856
     42 H6          2.1668    0.7974    0.3250 H         1 <0>         0.0840
     43 H7          1.5096   -2.9493    0.2471 H         1 <0>         0.1651
     44 H8          0.8092    1.7792   -1.4042 H         1 <0>         0.1200
     45 H9         -0.2034    2.2048   -3.5989 H         1 <0>         0.1270
     46 H10        -0.8933    0.3370   -5.0403 H         1 <0>         0.1215
     47 H11        -0.5737   -1.9741   -4.3113 H         1 <0>         0.1141
     48 H12         0.7150   -4.1620   -3.1904 H         1 <0>         0.0944
     49 H13         0.9453   -4.7502   -1.5263 H         1 <0>         0.0589
     50 H14        -0.5833   -4.5498   -0.0133 H         1 <0>         0.0894
     51 H15        -2.1937   -3.8616   -0.3650 H         1 <0>         0.0947
     52 H16        -1.3299   -6.7506   -0.2854 H         1 <0>         0.1196
     53 H17        -2.9365   -6.0317    0.0647 H         1 <0>         0.1139
     54 H18        -2.3781   -4.7757   -5.9293 H         1 <0>         0.4202
     55 H19        -4.0526   -3.7661   -4.1536 H         1 <0>         0.0948
     56 H20        -4.5992   -4.8336   -5.4621 H         1 <0>         0.1346
     57 H21        -4.3494   -5.8814   -0.2635 H         1 <0>         0.1338
     58 H22        -5.7019   -5.6932   -1.4053 H         1 <0>         0.1462
     59 H23        -4.7954   -7.2238   -1.3439 H         1 <0>         0.1284
     60 H24        -6.2260   -6.4618   -2.6843 H         1 <0>         0.1146
     61 H25        -6.1827   -4.7233   -3.0638 H         1 <0>         0.1045
     62 H26        -6.3095   -5.2034   -5.4626 H         1 <0>         0.1078
     63 H27        -6.2200   -6.9528   -5.1466 H         1 <0>         0.1077
     64 H28        -8.4752   -6.4105   -6.5186 H         1 <0>         0.4054
     65 H29       -10.5752   -7.1062   -4.7628 H         1 <0>         0.0824
     66 H30       -10.6647   -5.3568   -5.0788 H         1 <0>         0.0829
     67 H31       -11.1380   -4.5198   -7.3093 H         1 <0>         0.1353
     68 H32       -12.2112   -4.9648   -9.4799 H         1 <0>         0.1410
     69 H33       -12.0143   -9.1597   -8.7133 H         1 <0>         0.1408
     70 H34       -10.9322   -8.7112   -6.5478 H         1 <0>         0.1348
     71 H35        -3.6724   -4.6404   -2.1175 H         1 <0>         0.4249
@<TRIPOS>BOND
     1    1    2 1
     2    1   40 1
     3    1   41 1
     4    1   42 1
     5    2    6 1
     6    2    3 1
     7    3    4 2
     8    3   43 1
     9    4    5 1
    10    4   11 1
    11    5   10 ar
    12    5    6 ar
    13    6    7 ar
    14    7    8 ar
    15    7   44 1
    16    8    9 ar
    17    8   45 1
    18    9   10 ar
    19    9   46 1
    20   10   47 1
    21   11   12 1
    22   11   48 1
    23   11   49 1
    24   12   17 1
    25   12   13 1
    26   13   14 1
    27   13   50 1
    28   13   51 1
    29   14   15 1
    30   14   52 1
    31   14   53 1
    32   15   16 1
    33   15   25 1
    34   15   17 1
    35   17   18 1
    36   17   19 1
    37   19   20 2
    38   19   21 am
    39   21   22 1
    40   21   54 1
    41   22   23 1
    42   22   55 1
    43   22   56 1
    44   23   24 1
    45   23   25 1
    46   23   27 1
    47   25   26 1
    48   25   71 1
    49   26   57 1
    50   26   58 1
    51   26   59 1
    52   27   28 1
    53   27   60 1
    54   27   61 1
    55   28   29 1
    56   28   62 1
    57   28   63 1
    58   29   30 2
    59   29   31 am
    60   31   32 1
    61   31   64 1
    62   32   33 1
    63   32   65 1
    64   32   66 1
    65   33   38 ar
    66   33   34 ar
    67   34   35 ar
    68   34   67 1
    69   35   36 ar
    70   35   68 1
    71   36   37 ar
    72   36   39 1
    73   37   38 ar
    74   37   69 1
    75   38   70 1
@<TRIPOS>MOLECULE
ZINC39596543
   69    72     0     0     0
SMALL
USER_CHARGES

@<TRIPOS>ATOM
      1 C1         -0.1107    1.5082    0.0507 C.3       1 <0>        -0.1199
      2 C2         -0.0803    0.0016    0.0382 C.ar      1 <0>        -0.0776
      3 C3         -0.0844   -0.6799   -1.1645 C.ar      1 <0>        -0.1196
      4 C4         -0.0564   -2.0619   -1.1759 C.ar      1 <0>        -0.1006
      5 C5         -0.0239   -2.7624    0.0154 C.ar      1 <0>        -0.0850
      6 C6         -0.0189   -2.0809    1.2180 C.ar      1 <0>        -0.0992
      7 C7         -0.0426   -0.6988    1.2294 C.ar      1 <0>        -0.1180
      8 C8          0.0055   -4.2691    0.0029 C.3       1 <0>        -0.0949
      9 C9          1.4357   -4.7434   -0.0235 C.2       1 <0>         0.5416
     10 O1          2.3418   -3.9373   -0.0314 O.2       1 <0>        -0.5169
     11 N1          1.7078   -6.0633   -0.0383 N.am      1 <0>        -0.6268
     12 C10         0.7444   -7.1893   -0.0385 C.3       1 <0>         0.1102
     13 C11         1.3595   -8.2291   -1.0018 C.3       1 <0>        -0.1134
     14 H1          0.9428   -8.1127   -2.0023 H         1 <0>         0.1112
     15 C12         2.8649   -7.9150   -1.0089 C.3       1 <0>        -0.0712
     16 C13         3.0385   -6.7166   -0.0645 C.3       1 <0>         0.1080
     17 C14         3.6572   -9.1132   -0.4949 C.3       1 <0>        -0.1463
     18 C15         5.1541   -8.7980   -0.5662 C.3       1 <0>        -0.0082
     19 N2          5.5275   -8.4981   -1.9537 N.4       1 <0>        -0.5045
     20 C16         4.8304   -7.2893   -2.4096 C.3       1 <0>        -0.0113
     21 C17         3.3198   -7.5408   -2.4164 C.3       1 <0>        -0.1340
     22 C18         1.1149   -9.6259   -0.4918 C.2       1 <0>         0.5209
     23 O2          1.1080   -9.8433    0.7013 O.2       1 <0>        -0.5207
     24 N3          0.9039  -10.6336   -1.3617 N.am      1 <0>        -0.7235
     25 C19         0.6661  -11.9915   -0.8659 C.3       1 <0>         0.1220
     26 C20         0.4577  -12.9375   -2.0501 C.3       1 <0>         0.0719
     27 H2          1.3466  -12.9315   -2.6809 H         1 <0>         0.0795
     28 C21         0.2093  -14.3557   -1.5324 C.3       1 <0>        -0.1841
     29 O3         -0.6705  -12.5046   -2.8129 O.3       1 <0>        -0.3046
     30 C22        -0.7041  -12.8640   -4.1235 C.ar      1 <0>         0.1148
     31 C23        -1.7056  -12.3782   -4.9511 C.ar      1 <0>        -0.1201
     32 C24        -1.7386  -12.7444   -6.2828 C.ar      1 <0>        -0.1110
     33 C25        -0.7728  -13.5961   -6.7914 C.ar      1 <0>         0.0674
     34 C26         0.2273  -14.0821   -5.9663 C.ar      1 <0>        -0.1132
     35 C27         0.2664  -13.7123   -4.6358 C.ar      1 <0>        -0.1837
     36 F1         -0.8064  -13.9537   -8.0937 F         1 <0>        -0.1361
     37 H3          0.9092    1.8924    0.0334 H         1 <0>         0.0728
     38 H4         -0.6494    1.8680   -0.8260 H         1 <0>         0.0685
     39 H5         -0.6141    1.8540    0.9535 H         1 <0>         0.0689
     40 H6         -0.1097   -0.1326   -2.0952 H         1 <0>         0.1234
     41 H7         -0.0603   -2.5944   -2.1155 H         1 <0>         0.1174
     42 H8          0.0061   -2.6283    2.1488 H         1 <0>         0.1195
     43 H9         -0.0349   -0.1663    2.1689 H         1 <0>         0.1243
     44 H10        -0.4869   -4.6495    0.8978 H         1 <0>         0.1061
     45 H11        -0.5151   -4.6354   -0.8818 H         1 <0>         0.1040
     46 H12         0.6497   -7.6086    0.9631 H         1 <0>         0.0999
     47 H13        -0.2268   -6.8583   -0.4063 H         1 <0>         0.0950
     48 H14         3.7911   -6.0314   -0.4550 H         1 <0>         0.0884
     49 H15         3.3145   -7.0579    0.9331 H         1 <0>         0.0837
     50 H16         3.3774   -9.3183    0.5384 H         1 <0>         0.1292
     51 H17         3.4392   -9.9852   -1.1115 H         1 <0>         0.0940
     52 H18         5.3739   -7.9358    0.0635 H         1 <0>         0.1337
     53 H19         5.7234   -9.6585   -0.2148 H         1 <0>         0.1393
     54 H20         6.5242   -8.3506   -2.0080 H         1 <0>         0.4344
     55 H21         5.0579   -6.4631   -1.7360 H         1 <0>         0.1345
     56 H22         5.1611   -7.0377   -3.4172 H         1 <0>         0.1397
     57 H23         3.0898   -8.3563   -3.1020 H         1 <0>         0.0955
     58 H24         2.8020   -6.6372   -2.7380 H         1 <0>         0.1180
     59 H25         0.9094  -10.4597   -2.3159 H         1 <0>         0.4035
     60 H26         1.5266  -12.3217   -0.2841 H         1 <0>         0.0931
     61 H27        -0.2229  -11.9975   -0.2352 H         1 <0>         0.0877
     62 H28         0.0609  -15.0297   -2.3760 H         1 <0>         0.0735
     63 H29         1.0699  -14.6860   -0.9506 H         1 <0>         0.0788
     64 H30        -0.6796  -14.3618   -0.9017 H         1 <0>         0.0772
     65 H31        -2.4596  -11.7144   -4.5545 H         1 <0>         0.1424
     66 H32        -2.5183  -12.3663   -6.9274 H         1 <0>         0.1458
     67 H33         0.9798  -14.7467   -6.3642 H         1 <0>         0.1399
     68 H34         1.0494  -14.0877   -3.9935 H         1 <0>         0.1380
     69 H35         5.2724   -9.2750   -2.5447 H         1 <0>         0.4271
@<TRIPOS>BOND
     1    1    2 1
     2    1   37 1
     3    1   38 1
     4    1   39 1
     5    2    7 ar
     6    2    3 ar
     7    3    4 ar
     8    3   40 1
     9    4    5 ar
    10    4   41 1
    11    5    6 ar
    12    5    8 1
    13    6    7 ar
    14    6   42 1
    15    7   43 1
    16    8    9 1
    17    8   44 1
    18    8   45 1
    19    9   10 2
    20    9   11 am
    21   11   16 1
    22   11   12 1
    23   12   13 1
    24   12   46 1
    25   12   47 1
    26   13   14 1
    27   13   15 1
    28   13   22 1
    29   15   21 1
    30   15   16 1
    31   15   17 1
    32   16   48 1
    33   16   49 1
    34   17   18 1
    35   17   50 1
    36   17   51 1
    37   18   19 1
    38   18   52 1
    39   18   53 1
    40   19   20 1
    41   19   54 1
    42   19   69 1
    43   20   21 1
    44   20   55 1
    45   20   56 1
    46   21   57 1
    47   21   58 1
    48   22   23 2
    49   22   24 am
    50   24   25 1
    51   24   59 1
    52   25   26 1
    53   25   60 1
    54   25   61 1
    55   26   27 1
    56   26   28 1
    57   26   29 1
    58   28   62 1
    59   28   63 1
    60   28   64 1
    61   29   30 1
    62   30   35 ar
    63   30   31 ar
    64   31   32 ar
    65   31   65 1
    66   32   33 ar
    67   32   66 1
    68   33   34 ar
    69   33   36 1
    70   34   35 ar
    71   34   67 1
    72   35   68 1
@<TRIPOS>MOLECULE
ZINC39678157
   77    80     0     0     0
SMALL
USER_CHARGES

@<TRIPOS>ATOM
      1 C1         -0.0809    1.5956   -0.0854 C.3       1 <0>        -0.1550
      2 C2         -0.0445    0.0661   -0.0718 C.3       1 <0>        -0.1255
      3 C3          0.6753   -0.4381   -1.3242 C.3       1 <0>        -0.1215
      4 C4          0.7117   -1.9676   -1.3105 C.3       1 <0>        -0.1019
      5 C5          1.4315   -2.4719   -2.5629 C.3       1 <0>        -0.1053
      6 H1          2.4188   -2.0142   -2.6236 H         1 <0>         0.0980
      7 C6          0.6186   -2.0974   -3.8039 C.3       1 <0>        -0.1546
      8 C7          1.5759   -3.9702   -2.4904 C.2       1 <0>         0.5445
      9 O1          1.1455   -4.5751   -1.5314 O.2       1 <0>        -0.5281
     10 N1          2.1834   -4.6379   -3.4912 N.am      1 <0>        -0.6235
     11 C8          2.7736   -4.0778   -4.7297 C.3       1 <0>         0.1105
     12 C9          4.0644   -4.8974   -4.9522 C.3       1 <0>        -0.1151
     13 H2          4.9224   -4.3771   -4.5265 H         1 <0>         0.1097
     14 C10         3.8203   -6.2227   -4.2113 C.3       1 <0>        -0.0703
     15 C11         2.4177   -6.0979   -3.5985 C.3       1 <0>         0.1067
     16 C12         3.8682   -7.3920   -5.1901 C.3       1 <0>        -0.1462
     17 C13         3.6808   -8.7031   -4.4215 C.3       1 <0>        -0.0080
     18 N2          4.7404   -8.8382   -3.4147 N.4       1 <0>        -0.5044
     19 C14         4.6297   -7.7609   -2.4238 C.3       1 <0>        -0.0110
     20 C15         4.8573   -6.4099   -3.1080 C.3       1 <0>        -0.1340
     21 C16         4.2802   -5.1475   -6.4226 C.2       1 <0>         0.5173
     22 O2          3.3285   -5.3170   -7.1549 O.2       1 <0>        -0.5239
     23 N3          5.5308   -5.1828   -6.9237 N.am      1 <0>        -0.7210
     24 C17         5.7406   -5.4259   -8.3531 C.3       1 <0>         0.1695
     25 C18         7.2175   -5.4161   -8.6528 C.ar      1 <0>        -0.1821
     26 C19         7.8446   -4.2313   -8.9925 C.ar      1 <0>        -0.0447
     27 C20         9.1979   -4.2188   -9.2678 C.ar      1 <0>        -0.2004
     28 C21         9.9291   -5.3980   -9.2032 C.ar      1 <0>         0.2368
     29 C22         9.2960   -6.5864   -8.8617 C.ar      1 <0>        -0.2039
     30 C23         7.9436   -6.5908   -8.5821 C.ar      1 <0>        -0.0493
     31 N4         11.2979   -5.3890   -9.4815 N.pl3     1 <0>        -0.6286
     32 C24        12.0654   -6.6427   -9.5489 C.3       1 <0>         0.0846
     33 C25        12.8617   -6.6522  -10.8588 C.3       1 <0>         0.0444
     34 O3         13.6140   -5.4409  -10.9611 O.3       1 <0>        -0.3760
     35 C26        12.8135   -4.2578  -11.0182 C.3       1 <0>         0.0442
     36 C27        12.0136   -4.1260   -9.7220 C.3       1 <0>         0.0827
     37 H3          0.9378    1.9832   -0.0998 H         1 <0>         0.0536
     38 H4         -0.6126    1.9385   -0.9730 H         1 <0>         0.0543
     39 H5         -0.5937    1.9548    0.8068 H         1 <0>         0.0559
     40 H6          0.4873   -0.2768    0.8158 H         1 <0>         0.0615
     41 H7         -1.0632   -0.3214   -0.0573 H         1 <0>         0.0625
     42 H8          0.1435   -0.0952   -2.2117 H         1 <0>         0.0664
     43 H9          1.6940   -0.0506   -1.3386 H         1 <0>         0.0620
     44 H10         1.2434   -2.3105   -0.4230 H         1 <0>         0.0707
     45 H11        -0.3070   -2.3552   -1.2961 H         1 <0>         0.0709
     46 H12         1.1314   -2.4566   -4.6961 H         1 <0>         0.0619
     47 H13        -0.3687   -2.5551   -3.7432 H         1 <0>         0.0636
     48 H14         0.5142   -1.0137   -3.8564 H         1 <0>         0.0767
     49 H15         2.0907   -4.2089   -5.5691 H         1 <0>         0.0998
     50 H16         3.0119   -3.0229   -4.5937 H         1 <0>         0.0953
     51 H17         2.3918   -6.5610   -2.6121 H         1 <0>         0.0878
     52 H18         1.6764   -6.5551   -4.2540 H         1 <0>         0.0834
     53 H19         3.0708   -7.2840   -5.9253 H         1 <0>         0.1289
     54 H20         4.8328   -7.4024   -5.6976 H         1 <0>         0.0956
     55 H21         2.7091   -8.6987   -3.9276 H         1 <0>         0.1331
     56 H22         3.7310   -9.5415   -5.1161 H         1 <0>         0.1390
     57 H23         4.6507   -9.7300   -2.9515 H         1 <0>         0.4339
     58 H24         3.6354   -7.7788   -1.9775 H         1 <0>         0.1339
     59 H25         5.3793   -7.9047   -1.6457 H         1 <0>         0.1392
     60 H26         5.8575   -6.3851   -3.5406 H         1 <0>         0.0960
     61 H27         4.7573   -5.6094   -2.3750 H         1 <0>         0.1171
     62 H28         6.2920   -5.0472   -6.3379 H         1 <0>         0.4014
     63 H29         5.3217   -6.3956   -8.6220 H         1 <0>         0.0749
     64 H30         5.2474   -4.6442   -8.9308 H         1 <0>         0.0777
     65 H31         7.2754   -3.3149   -9.0428 H         1 <0>         0.1239
     66 H32         9.6870   -3.2932   -9.5333 H         1 <0>         0.1266
     67 H33         9.8616   -7.5051   -8.8110 H         1 <0>         0.1242
     68 H34         7.4516   -7.5136   -8.3122 H         1 <0>         0.1184
     69 H35        12.7500   -6.6999   -8.7027 H         1 <0>         0.0741
     70 H36        11.3831   -7.4925   -9.5279 H         1 <0>         0.0924
     71 H37        13.5412   -7.5045  -10.8656 H         1 <0>         0.1082
     72 H38        12.1748   -6.7266  -11.7019 H         1 <0>         0.0571
     73 H39        13.4583   -3.3874  -11.1396 H         1 <0>         0.1093
     74 H40        12.1265   -4.3234  -11.8618 H         1 <0>         0.0571
     75 H41        11.2971   -3.3100   -9.8155 H         1 <0>         0.0946
     76 H42        12.6930   -3.9255   -8.8935 H         1 <0>         0.0750
     77 H43         5.6409   -8.7861   -3.8670 H         1 <0>         0.4274
@<TRIPOS>BOND
     1    1    2 1
     2    1   37 1
     3    1   38 1
     4    1   39 1
     5    2    3 1
     6    2   40 1
     7    2   41 1
     8    3    4 1
     9    3   42 1
    10    3   43 1
    11    4    5 1
    12    4   44 1
    13    4   45 1
    14    5    6 1
    15    5    7 1
    16    5    8 1
    17    7   46 1
    18    7   47 1
    19    7   48 1
    20    8    9 2
    21    8   10 am
    22   10   15 1
    23   10   11 1
    24   11   12 1
    25   11   49 1
    26   11   50 1
    27   12   13 1
    28   12   14 1
    29   12   21 1
    30   14   20 1
    31   14   15 1
    32   14   16 1
    33   15   51 1
    34   15   52 1
    35   16   17 1
    36   16   53 1
    37   16   54 1
    38   17   18 1
    39   17   55 1
    40   17   56 1
    41   18   19 1
    42   18   57 1
    43   18   77 1
    44   19   20 1
    45   19   58 1
    46   19   59 1
    47   20   60 1
    48   20   61 1
    49   21   22 2
    50   21   23 am
    51   23   24 1
    52   23   62 1
    53   24   25 1
    54   24   63 1
    55   24   64 1
    56   25   30 ar
    57   25   26 ar
    58   26   27 ar
    59   26   65 1
    60   27   28 ar
    61   27   66 1
    62   28   29 ar
    63   28   31 1
    64   29   30 ar
    65   29   67 1
    66   30   68 1
    67   31   36 1
    68   31   32 1
    69   32   33 1
    70   32   69 1
    71   32   70 1
    72   33   34 1
    73   33   71 1
    74   33   72 1
    75   34   35 1
    76   35   36 1
    77   35   73 1
    78   35   74 1
    79   36   75 1
    80   36   76 1
@<TRIPOS>MOLECULE
ZINC60361137
   70    73     0     0     0
SMALL
USER_CHARGES

@<TRIPOS>ATOM
      1 C1         -2.3219    1.8682   -3.5497 C.3       1 <0>        -0.1379
      2 C2         -2.2679    0.3418   -3.6401 C.3       1 <0>        -0.1140
      3 C3         -0.8977   -0.1489   -3.1682 C.3       1 <0>        -0.1458
      4 C4         -3.3424   -0.2515   -2.7657 C.2       1 <0>         0.5202
      5 O1         -4.0789    0.4750   -2.1326 O.2       1 <0>        -0.5266
      6 N1         -3.4850   -1.5894   -2.6873 N.am      1 <0>        -0.7370
      7 C5         -4.5295   -2.1662   -1.8373 C.3       1 <0>         0.1273
      8 C6         -4.4755   -3.6925   -1.9277 C.3       1 <0>        -0.1207
      9 H1         -3.4722   -4.0367   -1.6767 H         1 <0>         0.1034
     10 C7         -4.8261   -4.1332   -3.3518 C.3       1 <0>        -0.1359
     11 C8         -4.8458   -5.6633   -3.4118 C.3       1 <0>        -0.1391
     12 C9         -5.8407   -6.1961   -2.3785 C.3       1 <0>        -0.0218
     13 N2         -5.4361   -5.7628   -1.0357 N.4       1 <0>        -0.3674
     14 C10        -5.4834   -4.2984   -0.9485 C.3       1 <0>        -0.0020
     15 C11        -6.3491   -6.3408   -0.0405 C.3       1 <0>        -0.0295
     16 C12        -6.2038   -7.8407   -0.0368 C.2       1 <0>         0.5078
     17 O2         -5.4172   -8.3757   -0.7892 O.2       1 <0>        -0.4960
     18 N3         -6.9480   -8.5878    0.8025 N.am      1 <0>        -0.6295
     19 C13        -6.8949   -9.9719    0.7312 C.2       1 <0>         0.2749
     20 C14        -7.8851  -10.8031    0.2204 C.2       1 <0>        -0.0785
     21 C15        -7.3738  -12.1647    0.3604 C.2       1 <0>        -0.0988
     22 C16        -6.1545  -12.0748    0.9257 C.2       1 <0>         0.0618
     23 N4         -5.8608  -10.7565    1.1441 N.pl3     1 <0>        -0.3767
     24 C17        -4.6708  -10.2826    1.7133 C.ar      1 <0>         0.0966
     25 C18        -3.4685  -10.4295    1.0348 C.ar      1 <0>        -0.0916
     26 C19        -2.2976   -9.9611    1.5980 C.ar      1 <0>        -0.1068
     27 C20        -2.3219   -9.3467    2.8366 C.ar      1 <0>        -0.1020
     28 C21        -3.5178   -9.1994    3.5150 C.ar      1 <0>        -0.1081
     29 C22        -4.6929   -9.6603    2.9541 C.ar      1 <0>        -0.1109
     30 C23        -5.2875  -13.2706    1.2432 C.3       1 <0>        -0.0517
     31 C24        -6.1657  -14.5269    1.2192 C.3       1 <0>        -0.1169
     32 C25        -6.9795  -14.5588   -0.0775 C.3       1 <0>        -0.1216
     33 C26        -8.0431  -13.4539   -0.0374 C.3       1 <0>        -0.0566
     34 C27        -9.1465  -10.4066   -0.3294 C.1       1 <0>         0.2785
     35 N5        -10.1472  -10.0921   -0.7655 N.1       1 <0>        -0.4120
     36 H2         -1.5447    2.2973   -4.1821 H         1 <0>         0.0672
     37 H3         -3.2981    2.2178   -3.8859 H         1 <0>         0.0637
     38 H4         -2.1614    2.1769   -2.5167 H         1 <0>         0.0639
     39 H5         -2.4284    0.0331   -4.6730 H         1 <0>         0.1000
     40 H6         -0.7372    0.1599   -2.1352 H         1 <0>         0.0626
     41 H7         -0.8592   -1.2363   -3.2325 H         1 <0>         0.0561
     42 H8         -0.1205    0.2803   -3.8006 H         1 <0>         0.0742
     43 H9         -2.8959   -2.1704   -3.1936 H         1 <0>         0.4025
     44 H10        -4.3690   -1.8574   -0.8043 H         1 <0>         0.0785
     45 H11        -5.5057   -1.8166   -2.1735 H         1 <0>         0.0795
     46 H12        -5.8081   -3.7451   -3.6221 H         1 <0>         0.0876
     47 H13        -4.0780   -3.7508   -4.0462 H         1 <0>         0.0952
     48 H14        -5.1490   -5.9846   -4.4083 H         1 <0>         0.1156
     49 H15        -3.8505   -6.0491   -3.1914 H         1 <0>         0.0898
     50 H16        -6.8357   -5.8099   -2.6000 H         1 <0>         0.1284
     51 H17        -5.8574   -7.2852   -2.4187 H         1 <0>         0.1472
     52 H18        -5.2360   -3.9864    0.0662 H         1 <0>         0.1378
     53 H19        -6.4861   -3.9527   -1.1997 H         1 <0>         0.1379
     54 H20        -6.1047   -5.9497    0.9471 H         1 <0>         0.1660
     55 H21        -7.3760   -6.0758   -0.2923 H         1 <0>         0.1668
     56 H22        -7.5208   -8.1575    1.4565 H         1 <0>         0.4266
     57 H23        -3.4487  -10.9098    0.0677 H         1 <0>         0.1317
     58 H24        -1.3620  -10.0750    1.0706 H         1 <0>         0.1358
     59 H25        -1.4050   -8.9816    3.2751 H         1 <0>         0.1341
     60 H26        -3.5336   -8.7198    4.4825 H         1 <0>         0.1358
     61 H27        -5.6272   -9.5409    3.4825 H         1 <0>         0.1290
     62 H28        -4.4992  -13.3603    0.4957 H         1 <0>         0.0842
     63 H29        -4.8463  -13.1508    2.2327 H         1 <0>         0.0799
     64 H30        -5.5333  -15.4131    1.2728 H         1 <0>         0.0792
     65 H31        -6.8433  -14.5126    2.0729 H         1 <0>         0.0723
     66 H32        -6.3165  -14.3949   -0.9271 H         1 <0>         0.0686
     67 H33        -7.4664  -15.5288   -0.1776 H         1 <0>         0.0768
     68 H34        -8.8110  -13.7094    0.6927 H         1 <0>         0.0825
     69 H35        -8.4952  -13.3439   -1.0232 H         1 <0>         0.0786
     70 H36        -4.4960   -6.0790   -0.8504 H         1 <0>         0.4293
@<TRIPOS>BOND
     1    1    2 1
     2    1   36 1
     3    1   37 1
     4    1   38 1
     5    2    3 1
     6    2    4 1
     7    2   39 1
     8    3   40 1
     9    3   41 1
    10    3   42 1
    11    4    5 2
    12    4    6 am
    13    6    7 1
    14    6   43 1
    15    7    8 1
    16    7   44 1
    17    7   45 1
    18    8    9 1
    19    8   14 1
    20    8   10 1
    21   10   11 1
    22   10   46 1
    23   10   47 1
    24   11   12 1
    25   11   48 1
    26   11   49 1
    27   12   13 1
    28   12   50 1
    29   12   51 1
    30   13   14 1
    31   13   15 1
    32   13   70 1
    33   14   52 1
    34   14   53 1
    35   15   16 1
    36   15   54 1
    37   15   55 1
    38   16   17 2
    39   16   18 am
    40   18   19 1
    41   18   56 1
    42   19   23 1
    43   19   20 2
    44   20   21 1
    45   20   34 1
    46   21   33 1
    47   21   22 2
    48   22   23 1
    49   22   30 1
    50   23   24 1
    51   24   29 ar
    52   24   25 ar
    53   25   26 ar
    54   25   57 1
    55   26   27 ar
    56   26   58 1
    57   27   28 ar
    58   27   59 1
    59   28   29 ar
    60   28   60 1
    61   29   61 1
    62   30   31 1
    63   30   62 1
    64   30   63 1
    65   31   32 1
    66   31   64 1
    67   31   65 1
    68   32   33 1
    69   32   66 1
    70   32   67 1
    71   33   68 1
    72   33   69 1
    73   34   35 3
@<TRIPOS>MOLECULE
ZINC09692178
   63    65     0     0     0
SMALL
USER_CHARGES
N-[(2-chlorophenyl)methyl]-4-methyl-2-(1-propanoylindolin-5-yl)sulfonylamino-pentanamide
@<TRIPOS>ATOM
      1 C1         -0.1222   -2.3841   -9.9174 C.3       1 <0>        -0.1410
      2 C2         -1.0972   -1.6541   -8.9913 C.3       1 <0>        -0.1381
      3 C3         -1.0072   -2.2392   -7.6055 C.2       1 <0>         0.5208
      4 O1         -0.2389   -3.1503   -7.3805 O.2       1 <0>        -0.5049
      5 N1         -1.7805   -1.7500   -6.6160 N.am      1 <0>        -0.5597
      6 C4         -2.7427   -0.6548   -6.7652 C.3       1 <0>         0.0972
      7 C5         -3.3644   -0.4716   -5.3711 C.3       1 <0>        -0.0859
      8 C6         -2.6836   -1.5122   -4.5107 C.ar      1 <0>        -0.1596
      9 C7         -1.7819   -2.2127   -5.2964 C.ar      1 <0>         0.2046
     10 C8         -1.0284   -3.2345   -4.7162 C.ar      1 <0>        -0.1516
     11 C9         -1.1821   -3.5391   -3.3803 C.ar      1 <0>         0.0140
     12 C10        -2.0839   -2.8340   -2.6050 C.ar      1 <0>        -0.7039
     13 C11        -2.8376   -1.8240   -3.1738 C.ar      1 <0>         0.0163
     14 S1         -2.2774   -3.2263   -0.8981 S.o2      1 <0>         2.6970
     15 O2         -1.8564   -4.5744   -0.7410 O.2       1 <0>        -0.9505
     16 O3         -3.5755   -2.7851   -0.5246 O.2       1 <0>        -0.9496
     17 N2         -1.1996   -2.2927   -0.0560 N.pl3     1 <0>        -1.0987
     18 C12        -1.3065   -0.8322   -0.0979 C.3       1 <0>         0.1386
     19 H1         -1.8454   -0.5330   -0.9968 H         1 <0>         0.1076
     20 C13        -2.0630   -0.3405    1.1378 C.3       1 <0>        -0.1321
     21 C14        -2.3274    1.1610    1.0099 C.3       1 <0>        -0.1137
     22 C15        -3.3025    1.4109   -0.1424 C.3       1 <0>        -0.1597
     23 C16        -2.9332    1.6851    2.3134 C.3       1 <0>        -0.1431
     24 C17         0.0739   -0.2279   -0.1153 C.2       1 <0>         0.5138
     25 O4          1.0474   -0.9349    0.0377 O.2       1 <0>        -0.5210
     26 N3          0.2267    1.0983   -0.3008 N.am      1 <0>        -0.7218
     27 C18         1.5618    1.6979   -0.2366 C.3       1 <0>         0.1558
     28 C19         1.4579    3.1821   -0.4764 C.ar      1 <0>        -0.1051
     29 C20         1.7572    3.7039   -1.7210 C.ar      1 <0>        -0.0880
     30 C21         1.6578    5.0647   -1.9423 C.ar      1 <0>        -0.1156
     31 C22         1.2683    5.9058   -0.9164 C.ar      1 <0>        -0.0971
     32 C23         0.9740    5.3859    0.3298 C.ar      1 <0>        -0.1110
     33 C24         1.0687    4.0232    0.5505 C.ar      1 <0>        -0.0218
     34 Cl1         0.6996    3.3694    2.1158 Cl        1 <0>        -0.0565
     35 H2         -0.3783   -3.4429   -9.9527 H         1 <0>         0.0643
     36 H3         -0.1873   -1.9609  -10.9197 H         1 <0>         0.0679
     37 H4          0.8936   -2.2683   -9.5394 H         1 <0>         0.0640
     38 H5         -2.1130   -1.7698   -9.3693 H         1 <0>         0.0995
     39 H6         -0.8411   -0.5952   -8.9560 H         1 <0>         0.0990
     40 H7         -3.5115   -0.9231   -7.4898 H         1 <0>         0.0905
     41 H8         -2.2338    0.2579   -7.0752 H         1 <0>         0.0901
     42 H9         -4.4388   -0.6520   -5.4073 H         1 <0>         0.0985
     43 H10        -3.1587    0.5293   -4.9916 H         1 <0>         0.0970
     44 H11        -0.3218   -3.7886   -5.3162 H         1 <0>         0.1497
     45 H12        -0.5958   -4.3309   -2.9379 H         1 <0>         0.1475
     46 H13        -3.5455   -1.2749   -2.5706 H         1 <0>         0.1441
     47 H14        -0.4976   -2.7129    0.4651 H         1 <0>         0.4290
     48 H15        -3.0118   -0.8710    1.2178 H         1 <0>         0.0977
     49 H16        -1.4647   -0.5295    2.0291 H         1 <0>         0.0794
     50 H17        -1.3894    1.6795    0.8109 H         1 <0>         0.0810
     51 H18        -4.2664    0.9598    0.0931 H         1 <0>         0.0682
     52 H19        -3.4287    2.4840   -0.2854 H         1 <0>         0.0610
     53 H20        -2.9070    0.9667   -1.0558 H         1 <0>         0.0507
     54 H21        -2.2386    1.5071    3.1343 H         1 <0>         0.0546
     55 H22        -3.1216    2.7548    2.2223 H         1 <0>         0.0581
     56 H23        -3.8712    1.1666    2.5123 H         1 <0>         0.0593
     57 H24        -0.5469    1.6551   -0.4808 H         1 <0>         0.4051
     58 H25         1.9938    1.5183    0.7479 H         1 <0>         0.0864
     59 H26         2.1982    1.2502   -0.9999 H         1 <0>         0.0832
     60 H27         2.0654    3.0478   -2.5216 H         1 <0>         0.1340
     61 H28         1.8885    5.4715   -2.9157 H         1 <0>         0.1324
     62 H29         1.1945    6.9694   -1.0888 H         1 <0>         0.1350
     63 H30         0.6705    6.0431    1.1312 H         1 <0>         0.1368
@<TRIPOS>BOND
     1    1    2 1
     2    1   35 1
     3    1   36 1
     4    1   37 1
     5    2    3 1
     6    2   38 1
     7    2   39 1
     8    3    4 2
     9    3    5 am
    10    5    9 1
    11    5    6 1
    12    6    7 1
    13    6   40 1
    14    6   41 1
    15    7    8 1
    16    7   42 1
    17    7   43 1
    18    8   13 ar
    19    8    9 ar
    20    9   10 ar
    21   10   11 ar
    22   10   44 1
    23   11   12 ar
    24   11   45 1
    25   12   13 ar
    26   12   14 1
    27   13   46 1
    28   14   15 2
    29   14   16 2
    30   14   17 1
    31   17   18 1
    32   17   47 1
    33   18   19 1
    34   18   20 1
    35   18   24 1
    36   20   21 1
    37   20   48 1
    38   20   49 1
    39   21   22 1
    40   21   23 1
    41   21   50 1
    42   22   51 1
    43   22   52 1
    44   22   53 1
    45   23   54 1
    46   23   55 1
    47   23   56 1
    48   24   25 2
    49   24   26 am
    50   26   27 1
    51   26   57 1
    52   27   28 1
    53   27   58 1
    54   27   59 1
    55   28   33 ar
    56   28   29 ar
    57   29   30 ar
    58   29   60 1
    59   30   31 ar
    60   30   61 1
    61   31   32 ar
    62   31   62 1
    63   32   33 ar
    64   32   63 1
    65   33   34 1
@<TRIPOS>MOLECULE
ZINC12709924
   61    63     0     0     0
SMALL
USER_CHARGES
(2S)-2-[(4-chlorophenyl)-[2-[(R)-[2-[(4-fluorophenyl)amino]-2-oxo-ethyl]sulfinyl]acetyl]amino]-N-cyclopentyl-propanamide
@<TRIPOS>ATOM
      1 C1          4.7329    0.5183    2.3843 C.3       1 <0>        -0.1657
      2 C2          3.7158    1.6608    2.4157 C.3       1 <0>         0.1172
      3 H1          2.8178    1.3335    2.9396 H         1 <0>         0.1352
      4 C3          4.3122    2.8447    3.1324 C.2       1 <0>         0.5071
      5 O1          4.4354    3.9041    2.5549 O.2       1 <0>        -0.5206
      6 N1          4.7085    2.7263    4.4151 N.am      1 <0>        -0.7208
      7 C4          5.2882    3.8773    5.1119 C.3       1 <0>         0.1414
      8 C5          6.8115    3.9269    4.8736 C.3       1 <0>        -0.1332
      9 C6          7.3916    4.4147    6.2243 C.3       1 <0>        -0.1254
     10 C7          6.4925    3.6972    7.2615 C.3       1 <0>        -0.1248
     11 C8          5.0853    3.7312    6.6302 C.3       1 <0>        -0.1323
     12 N2          3.3691    2.0438    1.0448 N.am      1 <0>        -0.5481
     13 C9          4.3523    2.5595    0.1923 C.ar      1 <0>         0.1411
     14 C10         4.3213    3.8982   -0.1756 C.ar      1 <0>        -0.0707
     15 C11         5.2955    4.4058   -1.0126 C.ar      1 <0>        -0.1026
     16 C12         6.2955    3.5790   -1.4937 C.ar      1 <0>        -0.0308
     17 C13         6.3257    2.2434   -1.1328 C.ar      1 <0>        -0.1046
     18 C14         5.3571    1.7321   -0.2915 C.ar      1 <0>        -0.1138
     19 Cl1         7.5145    4.2186   -2.5514 Cl        1 <0>        -0.0649
     20 C15         2.1036    1.8995    0.6043 C.2       1 <0>         0.5580
     21 O2          1.2337    1.5355    1.3673 O.2       1 <0>        -0.5186
     22 C16         1.7692    2.1903   -0.8360 C.3       1 <0>        -0.5101
     23 S1          0.0397    1.7470   -1.1567 S.o       1 <0>         1.3613
     24 O3         -0.1344    0.3497   -0.9656 O.2       1 <0>        -0.7935
     25 C17        -0.1996    2.1521   -2.9086 C.3       1 <0>        -0.5138
     26 C18        -1.6152    1.8273   -3.3105 C.2       1 <0>         0.5436
     27 O4         -2.3868    1.3678   -2.4953 O.2       1 <0>        -0.5093
     28 N3         -2.0239    2.0475   -4.5758 N.am      1 <0>        -0.6677
     29 C19        -3.3658    1.8479   -4.9229 C.ar      1 <0>         0.1326
     30 C20        -3.6954    1.3974   -6.1943 C.ar      1 <0>        -0.1159
     31 C21        -5.0191    1.1957   -6.5327 C.ar      1 <0>        -0.1332
     32 C22        -6.0180    1.4534   -5.6089 C.ar      1 <0>         0.0852
     33 C23        -5.6917    1.9082   -4.3424 C.ar      1 <0>        -0.1317
     34 C24        -4.3688    2.1057   -3.9981 C.ar      1 <0>        -0.0918
     35 F1         -7.3125    1.2603   -5.9437 F         1 <0>        -0.1382
     36 H2          4.3517   -0.2905    1.7610 H         1 <0>         0.0765
     37 H3          5.6746    0.8814    1.9726 H         1 <0>         0.0706
     38 H4          4.8971    0.1501    3.3970 H         1 <0>         0.0797
     39 H5          4.6099    1.8791    4.8770 H         1 <0>         0.4005
     40 H6          4.8243    4.7988    4.7602 H         1 <0>         0.0923
     41 H7          7.1922    2.9348    4.6309 H         1 <0>         0.0689
     42 H8          7.0505    4.6332    4.0785 H         1 <0>         0.0702
     43 H9          7.2993    5.4969    6.3161 H         1 <0>         0.0700
     44 H10         8.4307    4.1039    6.3333 H         1 <0>         0.0694
     45 H11         6.4986    4.2358    8.2091 H         1 <0>         0.0696
     46 H12         6.8216    2.6680    7.4046 H         1 <0>         0.0672
     47 H13         4.5237    4.5823    7.0154 H         1 <0>         0.0762
     48 H14         4.5556    2.8040    6.8486 H         1 <0>         0.0717
     49 H15         3.5385    4.5429    0.1961 H         1 <0>         0.1389
     50 H16         5.2746    5.4480   -1.2952 H         1 <0>         0.1392
     51 H17         7.1076    1.6004   -1.5091 H         1 <0>         0.1377
     52 H18         5.3813    0.6898   -0.0099 H         1 <0>         0.1360
     53 H19         2.4206    1.6054   -1.4855 H         1 <0>         0.1190
     54 H20         1.9152    3.2518   -1.0357 H         1 <0>         0.1510
     55 H21        -0.0122    3.2144   -3.0648 H         1 <0>         0.1532
     56 H22         0.4932    1.5680   -3.5145 H         1 <0>         0.1205
     57 H23        -1.3886    2.3442   -5.2460 H         1 <0>         0.4148
     58 H24        -2.9169    1.2005   -6.9165 H         1 <0>         0.1363
     59 H25        -5.2756    0.8406   -7.5199 H         1 <0>         0.1408
     60 H26        -6.4722    2.1083   -3.6232 H         1 <0>         0.1418
     61 H27        -4.1148    2.4601   -3.0100 H         1 <0>         0.1475
@<TRIPOS>BOND
     1    1    2 1
     2    1   36 1
     3    1   37 1
     4    1   38 1
     5    2    3 1
     6    2    4 1
     7    2   12 1
     8    4    5 2
     9    4    6 am
    10    6    7 1
    11    6   39 1
    12    7   11 1
    13    7    8 1
    14    7   40 1
    15    8    9 1
    16    8   41 1
    17    8   42 1
    18    9   10 1
    19    9   43 1
    20    9   44 1
    21   10   11 1
    22   10   45 1
    23   10   46 1
    24   11   47 1
    25   11   48 1
    26   12   13 1
    27   12   20 am
    28   13   18 ar
    29   13   14 ar
    30   14   15 ar
    31   14   49 1
    32   15   16 ar
    33   15   50 1
    34   16   17 ar
    35   16   19 1
    36   17   18 ar
    37   17   51 1
    38   18   52 1
    39   20   21 2
    40   20   22 1
    41   22   23 1
    42   22   53 1
    43   22   54 1
    44   23   24 2
    45   23   25 1
    46   25   26 1
    47   25   55 1
    48   25   56 1
    49   26   27 2
    50   26   28 am
    51   28   29 1
    52   28   57 1
    53   29   34 ar
    54   29   30 ar
    55   30   31 ar
    56   30   58 1
    57   31   32 ar
    58   31   59 1
    59   32   33 ar
    60   32   35 1
    61   33   34 ar
    62   33   60 1
    63   34   61 1
@<TRIPOS>MOLECULE
ZINC20097827
   73    75     0     0     0
SMALL
USER_CHARGES
(2R)-N-cyclohexyl-2-[cyclohexyl-[2-[(S)-[2-oxo-2-(p-tolylamino)ethyl]sulfinyl]acetyl]amino]propanamide
@<TRIPOS>ATOM
      1 C1        -11.0774    0.0407    8.5458 C.3       1 <0>        -0.1168
      2 C2        -10.2868   -0.2881    7.3057 C.ar      1 <0>        -0.0992
      3 C3         -9.4314    0.6533    6.7630 C.ar      1 <0>        -0.1017
      4 C4         -8.7054    0.3550    5.6266 C.ar      1 <0>        -0.1182
      5 C5         -8.8351   -0.8917    5.0289 C.ar      1 <0>         0.1374
      6 C6         -9.6992   -1.8329    5.5730 C.ar      1 <0>        -0.1396
      7 C7        -10.4178   -1.5306    6.7131 C.ar      1 <0>        -0.1040
      8 N1         -8.1009   -1.1971    3.8775 N.am      1 <0>        -0.6808
      9 C8         -6.8524   -0.7126    3.7262 C.2       1 <0>         0.5429
     10 O1         -6.3951    0.0529    4.5484 O.2       1 <0>        -0.5155
     11 C9         -6.0244   -1.1220    2.5354 C.3       1 <0>        -0.5149
     12 S1         -4.4053   -0.3081    2.6162 S.o       1 <0>         1.3614
     13 O2         -4.5783    1.1000    2.5353 O.2       1 <0>        -0.7934
     14 C10        -3.5434   -0.8976    1.1328 C.3       1 <0>        -0.5206
     15 C11        -2.1660   -0.2887    1.0769 C.2       1 <0>         0.5476
     16 O3         -1.7687    0.3978    1.9944 O.2       1 <0>        -0.5163
     17 N2         -1.3755   -0.5072    0.0074 N.am      1 <0>        -0.5879
     18 C12        -0.0006   -0.0016   -0.0028 C.3       1 <0>         0.1677
     19 C13        -0.0150    1.5188    0.1678 C.3       1 <0>        -0.1388
     20 C14         1.4210    2.0468    0.1572 C.3       1 <0>        -0.1129
     21 C15         2.2063    1.4121    1.3066 C.3       1 <0>        -0.1227
     22 C16         2.2207   -0.1083    1.1360 C.3       1 <0>        -0.1130
     23 C17         0.7848   -0.6364    1.1467 C.3       1 <0>        -0.1365
     24 C18        -1.8913   -1.2503   -1.1450 C.3       1 <0>         0.1128
     25 H1         -2.9358   -1.5175   -0.9267 H         1 <0>         0.1183
     26 C19        -1.0391   -2.5013   -1.3681 C.3       1 <0>        -0.1605
     27 C20        -1.8333   -0.3776   -2.3723 C.2       1 <0>         0.4988
     28 O4         -1.4036    0.7536   -2.2922 O.2       1 <0>        -0.5184
     29 N3         -2.2591   -0.8543   -3.5588 N.am      1 <0>        -0.7373
     30 C21        -2.2028   -0.0059   -4.7519 C.3       1 <0>         0.1493
     31 C22        -3.4585    0.8658   -4.8175 C.3       1 <0>        -0.1278
     32 C23        -3.3997    1.7518   -6.0635 C.3       1 <0>        -0.1189
     33 C24        -3.3243    0.8712   -7.3124 C.3       1 <0>        -0.1226
     34 C25        -2.0687   -0.0005   -7.2467 C.3       1 <0>        -0.1178
     35 C26        -2.1275   -0.8866   -6.0008 C.3       1 <0>        -0.1237
     36 H2        -10.8431    1.0657    8.8690 H         1 <0>         0.0657
     37 H3        -10.8137   -0.6656    9.3468 H         1 <0>         0.0699
     38 H4        -12.1525   -0.0380    8.3268 H         1 <0>         0.0693
     39 H5         -9.3312    1.6228    7.2282 H         1 <0>         0.1256
     40 H6         -8.0372    1.0905    5.2035 H         1 <0>         0.1383
     41 H7         -9.8056   -2.8018    5.1080 H         1 <0>         0.1254
     42 H8        -11.0864   -2.2638    7.1396 H         1 <0>         0.1258
     43 H9         -8.5427   -1.8326    3.0959 H         1 <0>         0.4349
     44 H10        -5.8869   -2.2134    2.5422 H         1 <0>         0.1510
     45 H11        -6.5393   -0.8230    1.6105 H         1 <0>         0.1177
     46 H12        -3.4586   -1.9937    1.1693 H         1 <0>         0.1503
     47 H13        -4.1110   -0.6034    0.2377 H         1 <0>         0.1124
     48 H14         0.4395   -0.2785   -0.9722 H         1 <0>         0.0800
     49 H15        -0.5796    1.9751   -0.6586 H         1 <0>         0.0775
     50 H16        -0.4932    1.7759    1.1245 H         1 <0>         0.0854
     51 H17         1.8991    1.7897   -0.7995 H         1 <0>         0.0564
     52 H18         1.4107    3.1399    0.2798 H         1 <0>         0.0617
     53 H19         3.2387    1.7917    1.2989 H         1 <0>         0.0600
     54 H20         1.7282    1.6692    2.2633 H         1 <0>         0.0655
     55 H21         2.6988   -0.3654    0.1793 H         1 <0>         0.0584
     56 H22         2.7854   -0.5647    1.9624 H         1 <0>         0.0649
     57 H23         0.3067   -0.3793    2.1034 H         1 <0>         0.0850
     58 H24         0.7952   -1.7295    1.0241 H         1 <0>         0.0594
     59 H25        -1.4264   -3.0592   -2.2334 H         1 <0>         0.0756
     60 H26        -1.0814   -3.1383   -0.4723 H         1 <0>         0.0776
     61 H27         0.0031   -2.2057   -1.5590 H         1 <0>         0.0699
     62 H28        -2.6489   -1.8803   -3.6314 H         1 <0>         0.4168
     63 H29        -1.3017    0.6188   -4.6634 H         1 <0>         0.0870
     64 H30        -4.3493    0.2224   -4.8668 H         1 <0>         0.0628
     65 H31        -3.5127    1.4989   -3.9196 H         1 <0>         0.0648
     66 H32        -4.3025    2.3785   -6.1107 H         1 <0>         0.0650
     67 H33        -2.5089    2.3952   -6.0142 H         1 <0>         0.0647
     68 H34        -4.2152    0.2278   -7.3617 H         1 <0>         0.0627
     69 H35        -3.2820    1.5082   -8.2082 H         1 <0>         0.0650
     70 H36        -2.0145   -0.6336   -8.1446 H         1 <0>         0.0683
     71 H37        -1.1778    0.6429   -7.1973 H         1 <0>         0.0654
     72 H38        -1.2248   -1.5134   -5.9536 H         1 <0>         0.0689
     73 H39        -3.0184   -1.5300   -6.0501 H         1 <0>         0.0686
@<TRIPOS>BOND
     1    1    2 1
     2    1   36 1
     3    1   37 1
     4    1   38 1
     5    2    7 ar
     6    2    3 ar
     7    3    4 ar
     8    3   39 1
     9    4    5 ar
    10    4   40 1
    11    5    6 ar
    12    5    8 1
    13    6    7 ar
    14    6   41 1
    15    7   42 1
    16    8    9 am
    17    8   43 1
    18    9   10 2
    19    9   11 1
    20   11   12 1
    21   11   44 1
    22   11   45 1
    23   12   13 2
    24   12   14 1
    25   14   15 1
    26   14   46 1
    27   14   47 1
    28   15   16 2
    29   15   17 am
    30   17   18 1
    31   17   24 1
    32   18   23 1
    33   18   19 1
    34   18   48 1
    35   19   20 1
    36   19   49 1
    37   19   50 1
    38   20   21 1
    39   20   51 1
    40   20   52 1
    41   21   22 1
    42   21   53 1
    43   21   54 1
    44   22   23 1
    45   22   55 1
    46   22   56 1
    47   23   57 1
    48   23   58 1
    49   24   25 1
    50   24   26 1
    51   24   27 1
    52   26   59 1
    53   26   60 1
    54   26   61 1
    55   27   28 2
    56   27   29 am
    57   29   30 1
    58   29   62 1
    59   30   35 1
    60   30   31 1
    61   30   63 1
    62   31   32 1
    63   31   64 1
    64   31   65 1
    65   32   33 1
    66   32   66 1
    67   32   67 1
    68   33   34 1
    69   33   68 1
    70   33   69 1
    71   34   35 1
    72   34   70 1
    73   34   71 1
    74   35   72 1
    75   35   73 1
@<TRIPOS>MOLECULE
ZINC35815412
   53    56     0     0     0
SMALL
USER_CHARGES

@<TRIPOS>ATOM
      1 C1         -2.9770    1.2762    0.7619 C.ar      1 <0>        -0.0473
      2 C2         -4.2057    1.8489    1.0146 C.ar      1 <0>        -0.1084
      3 C3         -5.3690    1.1652    0.7017 C.ar      1 <0>        -0.0125
      4 C4         -5.3059   -0.0966    0.1340 C.ar      1 <0>        -0.1107
      5 C5         -4.0830   -0.6796   -0.1233 C.ar      1 <0>        -0.1003
      6 C6         -2.9070    0.0047    0.1895 C.ar      1 <0>        -0.1272
      7 C7         -1.5933   -0.6145   -0.0838 C.2       1 <0>         0.5672
      8 O1         -0.6625    0.0735   -0.4552 O.2       1 <0>        -0.5039
      9 N1         -1.4272   -1.9421    0.0787 N.am      1 <0>        -0.5618
     10 C8         -2.5863   -2.7986    0.3412 C.3       1 <0>         0.0703
     11 C9         -2.9423   -3.5595   -0.9099 C.2       1 <0>         0.4857
     12 O2         -2.2918   -3.4018   -1.9213 O.2       1 <0>        -0.4724
     13 N2         -3.9836   -4.4152   -0.9050 N.am      1 <0>        -0.6106
     14 C10        -4.3120   -5.1170   -2.0590 C.2       1 <0>         0.2466
     15 N3         -5.2872   -5.9809   -2.2408 N.2       1 <0>        -0.5269
     16 C11        -5.4693   -6.5686   -3.4087 C.2       1 <0>         0.0993
     17 C12        -4.6090   -6.2411   -4.4041 C.2       1 <0>        -0.2738
     18 S1         -3.5629   -5.0622   -3.5651 S.3       1 <0>         0.2245
     19 C13        -6.5834   -7.5598   -3.6259 C.3       1 <0>        -0.0632
     20 C14        -6.4857   -8.6583   -2.5989 C.2       1 <0>         0.5173
     21 O3         -5.5986   -8.6383   -1.7720 O.2       1 <0>        -0.4961
     22 N4         -7.3841   -9.6630   -2.5992 N.am      1 <0>        -0.6775
     23 C15        -7.3458  -10.6369   -1.5938 C.ar      1 <0>         0.1385
     24 C16        -7.6936  -11.9495   -1.8837 C.ar      1 <0>        -0.1176
     25 C17        -7.6552  -12.9085   -0.8905 C.ar      1 <0>        -0.1335
     26 C18        -7.2706  -12.5616    0.3937 C.ar      1 <0>         0.0824
     27 C19        -6.9233  -11.2532    0.6849 C.ar      1 <0>        -0.1335
     28 C20        -6.9544  -10.2924   -0.3069 C.ar      1 <0>        -0.0919
     29 F1         -7.2345  -13.5010    1.3640 F         1 <0>        -0.1394
     30 C21        -0.0875   -2.5286   -0.0072 C.3       1 <0>         0.0665
     31 C22         1.1075   -1.5789    0.0973 C.3       1 <0>        -0.1876
     32 C23         0.7458   -2.2080   -1.2496 C.3       1 <0>        -0.1686
     33 Cl1        -6.9122    1.8927    1.0227 Cl        1 <0>        -0.0545
     34 H1         -2.0706    1.8120    1.0023 H         1 <0>         0.1467
     35 H2         -4.2611    2.8322    1.4577 H         1 <0>         0.1458
     36 H3         -6.2163   -0.6252   -0.1072 H         1 <0>         0.1434
     37 H4         -4.0351   -1.6637   -0.5656 H         1 <0>         0.1371
     38 H5         -2.3452   -3.5022    1.1381 H         1 <0>         0.1226
     39 H6         -3.4324   -2.1820    0.6446 H         1 <0>         0.1470
     40 H7         -4.5039   -4.5413   -0.0961 H         1 <0>         0.4258
     41 H8         -4.5696   -6.5933   -5.4242 H         1 <0>         0.1963
     42 H9         -7.5440   -7.0542   -3.5268 H         1 <0>         0.1146
     43 H10        -6.4995   -7.9878   -4.6248 H         1 <0>         0.1157
     44 H11        -8.0572   -9.7115   -3.2960 H         1 <0>         0.4127
     45 H12        -7.9943  -12.2203   -2.8850 H         1 <0>         0.1366
     46 H13        -7.9257  -13.9296   -1.1156 H         1 <0>         0.1401
     47 H14        -6.6239  -10.9846    1.6872 H         1 <0>         0.1386
     48 H15        -6.6792   -9.2729   -0.0804 H         1 <0>         0.1448
     49 H16         0.0195   -3.5223    0.4278 H         1 <0>         0.1302
     50 H17         0.8969   -0.5177    0.2300 H         1 <0>         0.1316
     51 H18         2.0009   -1.9477    0.6013 H         1 <0>         0.0943
     52 H19         1.4012   -2.9906   -1.6318 H         1 <0>         0.0964
     53 H20         0.2972   -1.5606   -2.0032 H         1 <0>         0.1004
@<TRIPOS>BOND
     1    1    6 ar
     2    1    2 ar
     3    1   34 1
     4    2    3 ar
     5    2   35 1
     6    3    4 ar
     7    3   33 1
     8    4    5 ar
     9    4   36 1
    10    5    6 ar
    11    5   37 1
    12    6    7 1
    13    7    8 2
    14    7    9 am
    15    9   10 1
    16    9   30 1
    17   10   11 1
    18   10   38 1
    19   10   39 1
    20   11   12 2
    21   11   13 am
    22   13   14 1
    23   13   40 1
    24   14   18 1
    25   14   15 2
    26   15   16 1
    27   16   17 2
    28   16   19 1
    29   17   18 1
    30   17   41 1
    31   19   20 1
    32   19   42 1
    33   19   43 1
    34   20   21 2
    35   20   22 am
    36   22   23 1
    37   22   44 1
    38   23   28 ar
    39   23   24 ar
    40   24   25 ar
    41   24   45 1
    42   25   26 ar
    43   25   46 1
    44   26   27 ar
    45   26   29 1
    46   27   28 ar
    47   27   47 1
    48   28   48 1
    49   30   32 1
    50   30   31 1
    51   30   49 1
    52   31   32 1
    53   31   50 1
    54   31   51 1
    55   32   52 1
    56   32   53 1
@<TRIPOS>MOLECULE
ZINC39566438
   55    56     0     0     0
SMALL
USER_CHARGES

@<TRIPOS>ATOM
      1 C1          1.9795   -0.7884    0.1633 C.3       1 <0>        -0.1124
      2 C2          0.8548   -1.7739   -0.0239 C.ar      1 <0>        -0.0950
      3 C3          0.8405   -2.6052   -1.1267 C.ar      1 <0>        -0.1130
      4 C4         -0.1913   -3.5094   -1.2995 C.ar      1 <0>        -0.1159
      5 C5         -1.2116   -3.5848   -0.3691 C.ar      1 <0>        -0.1126
      6 C6         -1.2028   -2.7566    0.7362 C.ar      1 <0>        -0.0712
      7 C7         -0.1652   -1.8511    0.9153 C.ar      1 <0>         0.1319
      8 N1         -0.1504   -1.0147    2.0369 N.am      1 <0>        -0.6655
      9 C8         -0.4046   -1.5221    3.2594 C.2       1 <0>         0.5047
     10 O1         -0.5855   -2.7136    3.3958 O.2       1 <0>        -0.5096
     11 C9         -0.4641   -0.6090    4.4568 C.3       1 <0>         0.1037
     12 N2         -0.7527   -1.3968    5.6578 N.am      1 <0>        -0.7137
     13 C10        -0.8530   -0.7871    6.8556 C.2       1 <0>         0.5240
     14 O2         -0.7043    0.4136    6.9392 O.2       1 <0>        -0.5132
     15 C11        -1.1498   -1.5975    8.0910 C.3       1 <0>         0.0720
     16 H1         -0.4128   -2.3946    8.1884 H         1 <0>         0.1143
     17 C12        -2.5485   -2.2072    7.9771 C.3       1 <0>        -0.1692
     18 O3         -1.0913   -0.7514    9.2411 O.3       1 <0>        -0.3180
     19 C13        -0.7154   -1.3200   10.3974 C.2       1 <0>         0.4650
     20 O4         -0.4450   -2.4971   10.4320 O.2       1 <0>        -0.4758
     21 C14        -0.6306   -0.4902   11.6525 C.3       1 <0>         0.0946
     22 H2          0.0224    0.3651   11.4792 H         1 <0>         0.1189
     23 C15        -2.0278    0.0037   12.0328 C.3       1 <0>        -0.1725
     24 O5         -0.1012   -1.2861   12.7148 O.3       1 <0>        -0.2840
     25 C16         0.6562   -0.6478   13.6456 C.ar      1 <0>         0.1436
     26 C17         1.3019   -1.3763   14.6340 C.ar      1 <0>        -0.1387
     27 C18         2.0711   -0.7257   15.5791 C.ar      1 <0>        -0.0488
     28 C19         2.1979    0.6513   15.5404 C.ar      1 <0>        -0.1271
     29 C20         1.5544    1.3797   14.5559 C.ar      1 <0>        -0.0467
     30 C21         0.7892    0.7324   13.6052 C.ar      1 <0>        -0.2066
     31 Br1         3.2516    1.5393   16.8355 Br        1 <0>        -0.0465
     32 C22        -2.3153   -2.8392    1.7494 C.3       1 <0>        -0.1048
     33 H3          2.7838   -1.2582    0.7294 H         1 <0>         0.0728
     34 H4          2.3551   -0.4764   -0.8111 H         1 <0>         0.0720
     35 H5          1.6129    0.0823    0.7071 H         1 <0>         0.0613
     36 H6          1.6359   -2.5487   -1.8552 H         1 <0>         0.1271
     37 H7         -0.2006   -4.1578   -2.1631 H         1 <0>         0.1258
     38 H8         -2.0162   -4.2918   -0.5070 H         1 <0>         0.1264
     39 H9          0.0428   -0.0697    1.9347 H         1 <0>         0.4122
     40 H10         0.4940   -0.1030    4.5757 H         1 <0>         0.1056
     41 H11        -1.2504    0.1315    4.3103 H         1 <0>         0.1063
     42 H12        -0.8716   -2.3571    5.5909 H         1 <0>         0.4152
     43 H13        -2.5931   -2.8526    7.0998 H         1 <0>         0.0851
     44 H14        -2.7632   -2.7933    8.8706 H         1 <0>         0.0791
     45 H15        -3.2855   -1.4101    7.8796 H         1 <0>         0.0770
     46 H16        -1.9665    0.6038   12.9406 H         1 <0>         0.0834
     47 H17        -2.4316    0.6107   11.2225 H         1 <0>         0.0926
     48 H18        -2.6808   -0.8517   12.2062 H         1 <0>         0.0777
     49 H19         1.2029   -2.4514   14.6648 H         1 <0>         0.1438
     50 H20         2.5737   -1.2925   16.3489 H         1 <0>         0.1427
     51 H21         1.6544    2.4547   14.5276 H         1 <0>         0.1387
     52 H22         0.2912    1.3009   12.8337 H         1 <0>         0.1411
     53 H23        -2.1174   -3.6586    2.4403 H         1 <0>         0.0907
     54 H24        -2.3722   -1.9023    2.3036 H         1 <0>         0.0524
     55 H25        -3.2610   -3.0162    1.2371 H         1 <0>         0.0589
@<TRIPOS>BOND
     1    1    2 1
     2    1   33 1
     3    1   34 1
     4    1   35 1
     5    2    7 ar
     6    2    3 ar
     7    3    4 ar
     8    3   36 1
     9    4    5 ar
    10    4   37 1
    11    5    6 ar
    12    5   38 1
    13    6    7 ar
    14    6   32 1
    15    7    8 1
    16    8    9 am
    17    8   39 1
    18    9   10 2
    19    9   11 1
    20   11   12 1
    21   11   40 1
    22   11   41 1
    23   12   13 am
    24   12   42 1
    25   13   14 2
    26   13   15 1
    27   15   16 1
    28   15   17 1
    29   15   18 1
    30   17   43 1
    31   17   44 1
    32   17   45 1
    33   18   19 1
    34   19   20 2
    35   19   21 1
    36   21   22 1
    37   21   23 1
    38   21   24 1
    39   23   46 1
    40   23   47 1
    41   23   48 1
    42   24   25 1
    43   25   30 ar
    44   25   26 ar
    45   26   27 ar
    46   26   49 1
    47   27   28 ar
    48   27   50 1
    49   28   29 ar
    50   28   31 1
    51   29   30 ar
    52   29   51 1
    53   30   52 1
    54   32   53 1
    55   32   54 1
    56   32   55 1
@<TRIPOS>MOLECULE
ZINC07994762
   46    47     0     0     0
SMALL
USER_CHARGES
N-cyclohexylideneamino-2-(methyl-(p-tolylsulfonyl)amino)-acetamide
@<TRIPOS>ATOM
      1 C1         -3.1744    1.7578    5.2524 C.3       1 <0>        -0.1244
      2 C2         -2.3884    1.5283    3.9872 C.ar      1 <0>        -0.0259
      3 C3         -2.6507    0.4214    3.2017 C.ar      1 <0>        -0.1376
      4 C4         -1.9298    0.2109    2.0412 C.ar      1 <0>        -0.0038
      5 C5         -0.9472    1.1077    1.6657 C.ar      1 <0>        -0.6716
      6 C6         -0.6816    2.2120    2.4536 C.ar      1 <0>        -0.0123
      7 C7         -1.4055    2.4248    3.6119 C.ar      1 <0>        -0.1412
      8 S1         -0.0283    0.8394    0.1864 S.o2      1 <0>         2.6919
      9 O1         -0.0910   -0.5544   -0.0835 O.2       1 <0>        -0.9570
     10 O2          1.2035    1.5304    0.3424 O.2       1 <0>        -0.9481
     11 N1         -0.8434    1.5961   -1.0404 N.pl3     1 <0>        -0.9803
     12 C8         -0.5446    2.9929   -1.3661 C.3       1 <0>         0.0942
     13 C9         -1.8634    0.8689   -1.8001 C.3       1 <0>         0.1005
     14 C10        -3.2221    1.1462   -1.2100 C.2       1 <0>         0.4997
     15 O3         -3.3280    1.8793   -0.2494 O.2       1 <0>        -0.4829
     16 N2         -4.3195    0.5797   -1.7497 N.am      1 <0>        -0.5893
     17 N3         -5.5826    0.8375   -1.2011 N.2       1 <0>        -0.2354
     18 C11        -6.6120    0.2207   -1.6468 C.2       1 <0>         0.1043
     19 C12        -6.4708   -0.8892   -2.6648 C.3       1 <0>        -0.1238
     20 C13        -7.2379   -2.1170   -2.1498 C.3       1 <0>        -0.1113
     21 C14        -8.6839   -1.7202   -1.8474 C.3       1 <0>        -0.1241
     22 C15        -8.7133   -0.6902   -0.7170 C.3       1 <0>        -0.1170
     23 C16        -8.0012    0.5874   -1.1737 C.3       1 <0>        -0.0617
     24 H1         -2.6689    1.2724    6.0872 H         1 <0>         0.0788
     25 H2         -3.2484    2.8281    5.4450 H         1 <0>         0.0727
     26 H3         -4.1743    1.3389    5.1399 H         1 <0>         0.0719
     27 H4         -3.4187   -0.2791    3.4950 H         1 <0>         0.1283
     28 H5         -2.1345   -0.6541    1.4278 H         1 <0>         0.1292
     29 H6          0.0891    2.9103    2.1625 H         1 <0>         0.1370
     30 H7         -1.2007    3.2898    4.2254 H         1 <0>         0.1314
     31 H8          0.2471    3.0301   -2.1144 H         1 <0>         0.0672
     32 H9         -1.4400    3.4736   -1.7603 H         1 <0>         0.0758
     33 H10        -0.2186    3.5141   -0.4661 H         1 <0>         0.0760
     34 H11        -1.8449    1.1967   -2.8395 H         1 <0>         0.1226
     35 H12        -1.6581   -0.2005   -1.7527 H         1 <0>         0.1276
     36 H13        -4.2348   -0.0064   -2.5179 H         1 <0>         0.3860
     37 H14        -6.8883   -0.5666   -3.6185 H         1 <0>         0.0913
     38 H15        -5.4173   -1.1400   -2.7893 H         1 <0>         0.0684
     39 H16        -6.7654   -2.4893   -1.2408 H         1 <0>         0.0655
     40 H17        -7.2267   -2.8971   -2.9111 H         1 <0>         0.0723
     41 H18        -9.2469   -2.6039   -1.5471 H         1 <0>         0.0690
     42 H19        -9.1349   -1.2898   -2.7415 H         1 <0>         0.0677
     43 H20        -8.2059   -1.0962    0.1581 H         1 <0>         0.0665
     44 H21        -9.7477   -0.4588   -0.4628 H         1 <0>         0.0755
     45 H22        -7.9315    1.2858   -0.3397 H         1 <0>         0.0853
     46 H23        -8.5568    1.0474   -1.9909 H         1 <0>         0.0912
@<TRIPOS>BOND
     1    1    2 1
     2    1   24 1
     3    1   25 1
     4    1   26 1
     5    2    7 ar
     6    2    3 ar
     7    3    4 ar
     8    3   27 1
     9    4    5 ar
    10    4   28 1
    11    5    6 ar
    12    5    8 1
    13    6    7 ar
    14    6   29 1
    15    7   30 1
    16    8    9 2
    17    8   10 2
    18    8   11 1
    19   11   12 1
    20   11   13 1
    21   12   31 1
    22   12   32 1
    23   12   33 1
    24   13   14 1
    25   13   34 1
    26   13   35 1
    27   14   15 2
    28   14   16 am
    29   16   17 1
    30   16   36 1
    31   17   18 2
    32   18   23 1
    33   18   19 1
    34   19   20 1
    35   19   37 1
    36   19   38 1
    37   20   21 1
    38   20   39 1
    39   20   40 1
    40   21   22 1
    41   21   41 1
    42   21   42 1
    43   22   23 1
    44   22   43 1
    45   22   44 1
    46   23   45 1
    47   23   46 1
@<TRIPOS>MOLECULE
ZINC17793262
   44    45     0     0     0
SMALL
USER_CHARGES
N-methoxy-N,4-dimethyl-3-(p-tolylsulfamoyl)benzamide
@<TRIPOS>ATOM
      1 C1         -5.3524   -0.3831   -5.3432 C.3       1 <0>        -0.1172
      2 C2         -4.0507    0.0576   -4.7248 C.ar      1 <0>        -0.0889
      3 C3         -4.0372    1.0971   -3.8129 C.ar      1 <0>        -0.1055
      4 C4         -2.8461    1.5033   -3.2441 C.ar      1 <0>        -0.1215
      5 C5         -1.6608    0.8663   -3.5888 C.ar      1 <0>         0.1299
      6 C6         -1.6772   -0.1741   -4.5091 C.ar      1 <0>        -0.1392
      7 C7         -2.8725   -0.5786   -5.0703 C.ar      1 <0>        -0.0987
      8 N1         -0.4543    1.2748   -3.0157 N.pl3     1 <0>        -1.0559
      9 S1          0.5952    0.1490   -2.4046 S.o2      1 <0>         2.6918
     10 O1          1.6851    0.8704   -1.8469 O.2       1 <0>        -0.9466
     11 O2          0.7699   -0.8342   -3.4155 O.2       1 <0>        -0.9455
     12 C8         -0.2205   -0.6487   -1.0618 C.ar      1 <0>        -0.6935
     13 C9         -0.5002   -1.9981   -1.1301 C.ar      1 <0>         0.0158
     14 C10        -1.1510   -2.6273   -0.0679 C.ar      1 <0>        -0.1692
     15 C11        -1.5099   -1.8868    1.0598 C.ar      1 <0>         0.0029
     16 C12        -1.2197   -0.5396    1.1175 C.ar      1 <0>        -0.1525
     17 C13        -0.5742    0.0782    0.0608 C.ar      1 <0>         0.0486
     18 C14        -0.2608    1.5505    0.1306 C.3       1 <0>        -0.1483
     19 C15        -1.4585   -4.0718   -0.1364 C.2       1 <0>         0.5755
     20 O3         -2.1688   -4.5826    0.7074 O.2       1 <0>        -0.5151
     21 N2         -0.9513   -4.8221   -1.1345 N.am      1 <0>        -0.4790
     22 C16        -1.3550   -6.2233   -1.2754 C.3       1 <0>         0.0823
     23 O4         -0.0282   -4.2561   -2.0469 O.3       1 <0>        -0.1377
     24 C17         1.3405   -4.4906   -1.7096 C.3       1 <0>        -0.0179
     25 H1         -5.5292    0.1813   -6.2588 H         1 <0>         0.0727
     26 H2         -5.3023   -1.4468   -5.5760 H         1 <0>         0.0682
     27 H3         -6.1673   -0.2026   -4.6420 H         1 <0>         0.0673
     28 H4         -4.9591    1.5922   -3.5456 H         1 <0>         0.1276
     29 H5         -2.8363    2.3149   -2.5317 H         1 <0>         0.1281
     30 H6         -0.7568   -0.6685   -4.7827 H         1 <0>         0.1551
     31 H7         -2.8866   -1.3901   -5.7828 H         1 <0>         0.1303
     32 H8         -0.2312    2.2180   -2.9757 H         1 <0>         0.4268
     33 H9         -0.2198   -2.5654   -2.0053 H         1 <0>         0.1821
     34 H10        -2.0141   -2.3677    1.8850 H         1 <0>         0.1454
     35 H11        -1.4972    0.0345    1.9892 H         1 <0>         0.1426
     36 H12         0.7081    1.6935    0.6091 H         1 <0>         0.1032
     37 H13        -0.2327    1.9643   -0.8774 H         1 <0>         0.0646
     38 H14        -1.0310    2.0589    0.7107 H         1 <0>         0.0904
     39 H15        -2.2321   -6.2857   -1.9195 H         1 <0>         0.0710
     40 H16        -0.5383   -6.7941   -1.7173 H         1 <0>         0.0806
     41 H17        -1.5950   -6.6327   -0.2941 H         1 <0>         0.0922
     42 H18         1.5520   -4.0613   -0.7303 H         1 <0>         0.0559
     43 H19         1.5299   -5.5637   -1.6846 H         1 <0>         0.0633
     44 H20         1.9836   -4.0255   -2.4567 H         1 <0>         0.1182
@<TRIPOS>BOND
     1    1    2 1
     2    1   25 1
     3    1   26 1
     4    1   27 1
     5    2    7 ar
     6    2    3 ar
     7    3    4 ar
     8    3   28 1
     9    4    5 ar
    10    4   29 1
    11    5    6 ar
    12    5    8 1
    13    6    7 ar
    14    6   30 1
    15    7   31 1
    16    8    9 1
    17    8   32 1
    18    9   10 2
    19    9   11 2
    20    9   12 1
    21   12   17 ar
    22   12   13 ar
    23   13   14 ar
    24   13   33 1
    25   14   15 ar
    26   14   19 1
    27   15   16 ar
    28   15   34 1
    29   16   17 ar
    30   16   35 1
    31   17   18 1
    32   18   36 1
    33   18   37 1
    34   18   38 1
    35   19   20 2
    36   19   21 am
    37   21   22 1
    38   21   23 1
    39   22   39 1
    40   22   40 1
    41   22   41 1
    42   23   24 1
    43   24   42 1
    44   24   43 1
    45   24   44 1
@<TRIPOS>MOLECULE
ZINC41107049
   46    48     0     0     0
SMALL
USER_CHARGES

@<TRIPOS>ATOM
      1 C1         -0.0839    1.5011    0.0159 C.3       1 <0>        -0.1459
      2 C2         -0.0286   -0.0049    0.0046 C.2       1 <0>         0.2803
      3 C3         -0.0970   -0.6633   -1.1724 C.2       1 <0>        -0.2945
      4 C4         -0.0379   -2.1770   -1.1383 C.3       1 <0>         0.2414
      5 H1         -0.9445   -2.5594   -1.6073 H         1 <0>         0.0930
      6 N1          0.0903   -2.8100    0.1852 N.am      1 <0>        -0.7118
      7 C5          0.1466   -2.0164    1.2730 C.2       1 <0>         0.7050
      8 O1          0.2524   -2.5292    2.3700 O.2       1 <0>        -0.5607
      9 N2          0.0955   -0.6813    1.1844 N.am      1 <0>        -0.5346
     10 C6          0.1702    0.0971    2.4232 C.3       1 <0>         0.1055
     11 C7         -1.2403    0.3145    2.9748 C.3       1 <0>         0.0617
     12 H2         -1.7203   -0.6439    3.1728 H         1 <0>         0.0811
     13 C8         -1.1867    1.1666    4.2678 C.3       1 <0>        -0.1476
     14 C9         -2.6106    1.7865    4.2716 C.3       1 <0>        -0.1549
     15 C10        -2.8903    1.9741    2.7649 C.3       1 <0>         0.0489
     16 O2         -2.0247    1.0831    2.0489 O.3       1 <0>        -0.3748
     17 C11         1.1346   -2.6152   -1.9775 C.ar      1 <0>        -0.1194
     18 C12         2.4131   -2.5739   -1.4532 C.ar      1 <0>        -0.0686
     19 C13         3.4890   -2.9759   -2.2217 C.ar      1 <0>        -0.1571
     20 C14         3.2861   -3.4201   -3.5173 C.ar      1 <0>         0.1039
     21 C15         2.0052   -3.4610   -4.0414 C.ar      1 <0>        -0.1558
     22 C16         0.9303   -3.0635   -3.2692 C.ar      1 <0>        -0.0542
     23 F1          4.3373   -3.8129   -4.2696 F         1 <0>        -0.1392
     24 C17        -0.2202    0.0364   -2.3957 C.2       1 <0>         0.5365
     25 O3         -0.1470    1.2508   -2.4120 O.2       1 <0>        -0.5153
     26 O4         -0.4190   -0.6431   -3.5445 O.3       1 <0>        -0.3494
     27 C18        -0.5343    0.1276   -4.7423 C.3       1 <0>         0.0365
     28 H3          0.9120    1.9026   -0.1713 H         1 <0>         0.0921
     29 H4         -0.7664    1.8454   -0.7610 H         1 <0>         0.1194
     30 H5         -0.4372    1.8444    0.9882 H         1 <0>         0.0923
     31 H6          0.1328   -3.7752    0.2719 H         1 <0>         0.4331
     32 H7          0.7678   -0.4439    3.1568 H         1 <0>         0.1166
     33 H8          0.6330    1.0625    2.2183 H         1 <0>         0.1038
     34 H9         -1.0290    0.5394    5.1453 H         1 <0>         0.0896
     35 H10        -0.4217    1.9398    4.1973 H         1 <0>         0.0840
     36 H11        -3.3311    1.1008    4.7175 H         1 <0>         0.0782
     37 H12        -2.6147    2.7457    4.7892 H         1 <0>         0.0858
     38 H13        -3.9304    1.7301    2.5488 H         1 <0>         0.0697
     39 H14        -2.6831    3.0044    2.4759 H         1 <0>         0.0733
     40 H15         2.5711   -2.2271   -0.4427 H         1 <0>         0.1226
     41 H16         4.4877   -2.9433   -1.8119 H         1 <0>         0.1346
     42 H17         1.8458   -3.8070   -5.0520 H         1 <0>         0.1371
     43 H18        -0.0694   -3.0995   -3.6763 H         1 <0>         0.1393
     44 H19        -1.3800    0.8098   -4.6555 H         1 <0>         0.0597
     45 H20         0.3803    0.7004   -4.8953 H         1 <0>         0.0590
     46 H21        -0.6913   -0.5396   -5.5899 H         1 <0>         0.1000
@<TRIPOS>BOND
     1    1    2 1
     2    1   28 1
     3    1   29 1
     4    1   30 1
     5    2    9 1
     6    2    3 2
     7    3    4 1
     8    3   24 1
     9    4    5 1
    10    4    6 1
    11    4   17 1
    12    6    7 am
    13    6   31 1
    14    7    8 2
    15    7    9 am
    16    9   10 1
    17   10   11 1
    18   10   32 1
    19   10   33 1
    20   11   12 1
    21   11   16 1
    22   11   13 1
    23   13   14 1
    24   13   34 1
    25   13   35 1
    26   14   15 1
    27   14   36 1
    28   14   37 1
    29   15   16 1
    30   15   38 1
    31   15   39 1
    32   17   22 ar
    33   17   18 ar
    34   18   19 ar
    35   18   40 1
    36   19   20 ar
    37   19   41 1
    38   20   21 ar
    39   20   23 1
    40   21   22 ar
    41   21   42 1
    42   22   43 1
    43   24   25 2
    44   24   26 1
    45   26   27 1
    46   27   44 1
    47   27   45 1
    48   27   46 1
@<TRIPOS>MOLECULE
ZINC08122856
   41    42     0     0     0
SMALL
USER_CHARGES

@<TRIPOS>ATOM
      1 C1         -1.2675    1.1822    0.1826 C.3       1 <0>        -0.1167
      2 C2         -0.5860   -0.1583    0.0850 C.ar      1 <0>        -0.1188
      3 C3         -0.5721   -0.8405   -1.1162 C.ar      1 <0>        -0.0723
      4 C4          0.0525   -2.0702   -1.2077 C.ar      1 <0>        -0.1599
      5 C5          0.6660   -2.6228   -0.0953 C.ar      1 <0>         0.1139
      6 C6          0.6547   -1.9443    1.1098 C.ar      1 <0>        -0.1536
      7 C7          0.0332   -0.7057    1.2011 C.ar      1 <0>         0.1679
      8 N1          0.0251   -0.0140    2.4165 N.am      1 <0>        -0.6632
      9 C8         -0.0564   -0.6930    3.5778 C.2       1 <0>         0.5552
     10 O1         -0.0401   -1.9085    3.5737 O.2       1 <0>        -0.4996
     11 C9         -0.1656    0.0403    4.8566 C.ar      1 <0>        -0.0782
     12 C10        -0.1904    1.4359    4.8645 C.ar      1 <0>        -0.1065
     13 C11        -0.2925    2.1142    6.0614 C.ar      1 <0>        -0.0262
     14 C12        -0.3702    1.4141    7.2523 C.ar      1 <0>        -0.6625
     15 C13        -0.3457    0.0307    7.2516 C.ar      1 <0>        -0.0224
     16 C14        -0.2502   -0.6599    6.0612 C.ar      1 <0>        -0.0749
     17 S1         -0.5003    2.2882    8.7767 S.o2      1 <0>         2.6923
     18 O2         -0.0090    1.4181    9.7870 O.2       1 <0>        -0.9268
     19 O3          0.0467    3.5803    8.5519 O.2       1 <0>        -0.9264
     20 N2         -2.1137    2.5038    9.0813 N.pl3     1 <0>        -0.8658
     21 C15        -2.8309    1.5549    9.9366 C.3       1 <0>         0.0763
     22 O4         -2.8002    3.6052    8.5150 O.3       1 <0>        -0.1068
     23 C16        -3.3761    3.3356    7.2353 C.3       1 <0>        -0.0219
     24 F1          1.2753   -3.8251   -0.1876 F         1 <0>        -0.1342
     25 H1         -0.5531    1.9710   -0.0530 H         1 <0>         0.0756
     26 H2         -2.0969    1.2205   -0.5236 H         1 <0>         0.0769
     27 H3         -1.6454    1.3249    1.1950 H         1 <0>         0.0639
     28 H4         -1.0502   -0.4125   -1.9849 H         1 <0>         0.1399
     29 H5          0.0618   -2.6014   -2.1480 H         1 <0>         0.1395
     30 H6          1.1325   -2.3748    1.9774 H         1 <0>         0.1527
     31 H7          0.0781    0.9546    2.4236 H         1 <0>         0.4145
     32 H8         -0.1295    1.9836    3.9356 H         1 <0>         0.1386
     33 H9         -0.3114    3.1940    6.0690 H         1 <0>         0.1517
     34 H10        -0.4060   -0.5098    8.1847 H         1 <0>         0.1528
     35 H11        -0.2364   -1.7398    6.0616 H         1 <0>         0.1521
     36 H12        -2.7772    1.8877   10.9732 H         1 <0>         0.0758
     37 H13        -3.8742    1.5021    9.6256 H         1 <0>         0.0845
     38 H14        -2.3748    0.5689    9.8475 H         1 <0>         0.0860
     39 H15        -3.8834    4.2284    6.8698 H         1 <0>         0.1155
     40 H16        -2.5899    3.0523    6.5355 H         1 <0>         0.0504
     41 H17        -4.0942    2.5205    7.3245 H         1 <0>         0.0608
@<TRIPOS>BOND
     1    1    2 1
     2    1   25 1
     3    1   26 1
     4    1   27 1
     5    2    7 ar
     6    2    3 ar
     7    3    4 ar
     8    3   28 1
     9    4    5 ar
    10    4   29 1
    11    5    6 ar
    12    5   24 1
    13    6    7 ar
    14    6   30 1
    15    7    8 1
    16    8    9 am
    17    8   31 1
    18    9   10 2
    19    9   11 1
    20   11   16 ar
    21   11   12 ar
    22   12   13 ar
    23   12   32 1
    24   13   14 ar
    25   13   33 1
    26   14   15 ar
    27   14   17 1
    28   15   16 ar
    29   15   34 1
    30   16   35 1
    31   17   18 2
    32   17   19 2
    33   17   20 1
    34   20   21 1
    35   20   22 1
    36   21   36 1
    37   21   37 1
    38   21   38 1
    39   22   23 1
    40   23   39 1
    41   23   40 1
    42   23   41 1
@<TRIPOS>MOLECULE
ZINC67303438
   56    57     0     0     0
SMALL
USER_CHARGES

@<TRIPOS>ATOM
      1 C1          1.6789    2.8015    1.5984 C.3       1 <0>        -0.0844
      2 C2          1.6729    1.3184    1.8658 C.2       1 <0>         0.0870
      3 C3          1.2124    0.3292    0.9907 C.2       1 <0>        -0.2519
      4 C4          1.3762   -0.8704    1.5950 C.2       1 <0>         0.1039
      5 N1          1.9211   -0.6482    2.8094 N.pl3     1 <0>        -0.3714
      6 N2          2.1028    0.7333    2.9542 N.2       1 <0>        -0.2934
      7 C5          2.2667   -1.6714    3.7993 C.3       1 <0>         0.0998
      8 C6          1.0145   -2.2138    1.0158 C.3       1 <0>        -0.0983
      9 C7          0.6349    0.5588   -0.3822 C.3       1 <0>         0.2256
     10 H1          0.6111   -0.3840   -0.9287 H         1 <0>         0.0934
     11 C8         -0.7869    1.1088   -0.2520 C.3       1 <0>        -0.1585
     12 N3          1.4668    1.5226   -1.1070 N.am      1 <0>        -0.7126
     13 C9          1.4813    1.5209   -2.4546 C.2       1 <0>         0.6074
     14 O1          0.8039    0.7197   -3.0688 O.2       1 <0>        -0.5338
     15 C10         2.3201    2.4926   -3.1854 C.2       1 <0>        -0.0220
     16 C11         2.4352    2.6168   -4.5903 C.2       1 <0>        -0.1739
     17 C12         3.3078    3.6315   -4.7935 C.2       1 <0>         0.0233
     18 N4          3.6873    4.0821   -3.5785 N.pl3     1 <0>        -0.2652
     19 N5          3.0994    3.4127   -2.6529 N.2       1 <0>        -0.2580
     20 C13         4.6295    5.1802   -3.3488 C.3       1 <0>         0.1675
     21 C14         4.1697    6.4170   -4.1232 C.3       1 <0>        -0.1733
     22 C15         4.6808    5.5040   -1.8544 C.3       1 <0>        -0.1465
     23 C16         6.0220    4.7663   -3.8291 C.3       1 <0>        -0.1663
     24 C17         3.7699    4.1595   -6.1272 C.3       1 <0>        -0.0312
     25 C18         3.9048    2.9997   -7.1159 C.3       1 <0>        -0.1445
     26 C19         2.7480    5.1666   -6.6588 C.3       1 <0>        -0.1522
     27 H2          2.6185    3.0809    1.1219 H         1 <0>         0.0792
     28 H3          0.8481    3.0554    0.9402 H         1 <0>         0.0809
     29 H4          1.5745    3.3408    2.5399 H         1 <0>         0.0781
     30 H5          3.2925   -2.0021    3.6371 H         1 <0>         0.0757
     31 H6          2.1740   -1.2531    4.8016 H         1 <0>         0.0905
     32 H7          1.5906   -2.5201    3.6958 H         1 <0>         0.0881
     33 H8          1.8673   -2.6149    0.4681 H         1 <0>         0.0837
     34 H9          0.7467   -2.8968    1.8220 H         1 <0>         0.0736
     35 H10         0.1680   -2.1015    0.3385 H         1 <0>         0.0893
     36 H11        -0.7631    2.0516    0.2946 H         1 <0>         0.0582
     37 H12        -1.2046    1.2749   -1.2450 H         1 <0>         0.0642
     38 H13        -1.4059    0.3918    0.2873 H         1 <0>         0.0655
     39 H14         2.0073    2.1618   -0.6169 H         1 <0>         0.4054
     40 H15         1.9327    2.0263   -5.3420 H         1 <0>         0.1588
     41 H16         3.1340    6.6412   -3.8680 H         1 <0>         0.0685
     42 H17         4.8007    7.2659   -3.8599 H         1 <0>         0.0840
     43 H18         4.2468    6.2251   -5.1934 H         1 <0>         0.0800
     44 H19         5.0083    4.6229   -1.3027 H         1 <0>         0.0720
     45 H20         5.3818    6.3210   -1.6835 H         1 <0>         0.0768
     46 H21         3.6888    5.7989   -1.5123 H         1 <0>         0.0699
     47 H22         5.9718    4.4703   -4.8769 H         1 <0>         0.0708
     48 H23         6.7081    5.6063   -3.7212 H         1 <0>         0.0846
     49 H24         6.3780    3.9273   -3.2311 H         1 <0>         0.0682
     50 H25         4.7359    4.6503   -6.0088 H         1 <0>         0.0861
     51 H26         4.6328    2.2823   -6.7372 H         1 <0>         0.0588
     52 H27         2.9388    2.5090   -7.2344 H         1 <0>         0.0643
     53 H28         4.2390    3.3817   -8.0806 H         1 <0>         0.0647
     54 H29         2.5735    5.9376   -5.9084 H         1 <0>         0.0606
     55 H30         3.1311    5.6264   -7.5698 H         1 <0>         0.0652
     56 H31         1.8116    4.6532   -6.8770 H         1 <0>         0.0638
@<TRIPOS>BOND
     1    1    2 1
     2    1   27 1
     3    1   28 1
     4    1   29 1
     5    2    6 2
     6    2    3 1
     7    3    4 2
     8    3    9 1
     9    4    5 1
    10    4    8 1
    11    5    6 1
    12    5    7 1
    13    7   30 1
    14    7   31 1
    15    7   32 1
    16    8   33 1
    17    8   34 1
    18    8   35 1
    19    9   10 1
    20    9   11 1
    21    9   12 1
    22   11   36 1
    23   11   37 1
    24   11   38 1
    25   12   13 am
    26   12   39 1
    27   13   14 2
    28   13   15 1
    29   15   19 2
    30   15   16 1
    31   16   17 2
    32   16   40 1
    33   17   18 1
    34   17   24 1
    35   18   19 1
    36   18   20 1
    37   20   21 1
    38   20   22 1
    39   20   23 1
    40   21   41 1
    41   21   42 1
    42   21   43 1
    43   22   44 1
    44   22   45 1
    45   22   46 1
    46   23   47 1
    47   23   48 1
    48   23   49 1
    49   24   25 1
    50   24   26 1
    51   24   50 1
    52   25   51 1
    53   25   52 1
    54   25   53 1
    55   26   54 1
    56   26   55 1
    57   26   56 1
@<TRIPOS>MOLECULE
ZINC09695117
   58    60     0     0     0
SMALL
USER_CHARGES
2-[(5-benzylideneaminoamino-4H-1,2,4-triazol-3-yl)sulfanyl]-N-[4-(tert-butylsulfamoyl)phenyl]-acetamide
@<TRIPOS>ATOM
      1 C1          0.2431   -1.3334   -0.3260 C.3       1 <0>        -0.1838
      2 C2          0.5160   -0.7946    1.0798 C.3       1 <0>         0.1756
      3 C3          1.4971   -1.7220    1.7998 C.3       1 <0>        -0.1508
      4 C4         -0.7955   -0.7310    1.8651 C.3       1 <0>        -0.1902
      5 N1          1.0937    0.5483    0.9844 N.pl3     1 <0>        -1.1085
      6 S1          0.1775    1.8054    0.4167 S.o2      1 <0>         2.6953
      7 O1          1.0480    2.9225    0.3006 O.2       1 <0>        -0.9590
      8 O2         -0.5660    1.3013   -0.6844 O.2       1 <0>        -0.9527
      9 C5         -0.9917    2.2065    1.6724 C.ar      1 <0>        -0.6907
     10 C6         -2.3045    1.7892    1.5515 C.ar      1 <0>         0.0022
     11 C7         -3.2223    2.0979    2.5363 C.ar      1 <0>        -0.1636
     12 C8         -2.8278    2.8368    3.6440 C.ar      1 <0>         0.2035
     13 C9         -1.5099    3.2589    3.7599 C.ar      1 <0>        -0.1422
     14 C10        -0.5959    2.9429    2.7739 C.ar      1 <0>         0.0031
     15 N2         -3.7562    3.1549    4.6414 N.am      1 <0>        -0.6691
     16 C11        -3.6641    4.3282    5.2983 C.2       1 <0>         0.5387
     17 O3         -2.8311    5.1450    4.9667 O.2       1 <0>        -0.4940
     18 C12        -4.5962    4.6251    6.4446 C.3       1 <0>        -0.1482
     19 S2         -4.2245    6.2688    7.1160 S.3       1 <0>         0.0853
     20 C13        -5.3826    6.4646    8.4294 C.2       1 <0>         0.1889
     21 N3         -5.4958    7.5552    9.2440 N.pl3     1 <0>        -0.6073
     22 H1         -4.9529    8.3579    9.2008 H         1 <0>         0.4249
     23 C14        -6.5091    7.3172   10.1305 C.2       1 <0>         0.5023
     24 N4         -7.0011    6.1294    9.8741 N.2       1 <0>        -0.3183
     25 N5         -6.2910    5.5910    8.7930 N.2       1 <0>        -0.3050
     26 N6         -6.9410    8.1812   11.1266 N.pl3     1 <0>        -0.5535
     27 N7         -7.9962    7.8074   11.9690 N.2       1 <0>        -0.2015
     28 C15        -8.4004    8.6161   12.9013 C.2       1 <0>         0.1057
     29 C16        -9.5108    8.2228   13.7878 C.ar      1 <0>        -0.0563
     30 C17       -10.1345    6.9833   13.6241 C.ar      1 <0>        -0.0782
     31 C18       -11.1689    6.6197   14.4608 C.ar      1 <0>        -0.1244
     32 C19       -11.5972    7.4841   15.4528 C.ar      1 <0>        -0.1021
     33 C20       -10.9881    8.7157   15.6172 C.ar      1 <0>        -0.1249
     34 C21        -9.9484    9.0902   14.7919 C.ar      1 <0>        -0.0898
     35 H2          1.1515   -1.2640   -0.9244 H         1 <0>         0.0624
     36 H3         -0.0707   -2.3753   -0.2612 H         1 <0>         0.0675
     37 H4         -0.5461   -0.7447   -0.7938 H         1 <0>         0.0916
     38 H5          1.6916   -1.3381    2.8013 H         1 <0>         0.0633
     39 H6          1.0673   -2.7211    1.8707 H         1 <0>         0.0730
     40 H7          2.4315   -1.7673    1.2403 H         1 <0>         0.0648
     41 H8         -1.5758   -0.3037    1.2353 H         1 <0>         0.0686
     42 H9         -1.0851   -1.7364    2.1707 H         1 <0>         0.0801
     43 H10        -0.6599   -0.1076    2.7489 H         1 <0>         0.0697
     44 H11         2.0130    0.7010    1.2538 H         1 <0>         0.4185
     45 H12        -2.6116    1.2181    0.6878 H         1 <0>         0.1496
     46 H13        -4.2465    1.7681    2.4433 H         1 <0>         0.1388
     47 H14        -1.2000    3.8334    4.6203 H         1 <0>         0.1443
     48 H15         0.4292    3.2708    2.8635 H         1 <0>         0.1407
     49 H16        -4.4661    2.5311    4.8600 H         1 <0>         0.4202
     50 H17        -5.6267    4.6018    6.0904 H         1 <0>         0.1342
     51 H18        -4.4631    3.8755    7.2246 H         1 <0>         0.1351
     52 H19        -6.5123    9.0439   11.2397 H         1 <0>         0.3980
     53 H20        -7.9231    9.5767   13.0272 H         1 <0>         0.1231
     54 H21        -9.8041    6.3095   12.8473 H         1 <0>         0.1362
     55 H22       -11.6490    5.6601   14.3383 H         1 <0>         0.1275
     56 H23       -12.4107    7.1960   16.1022 H         1 <0>         0.1253
     57 H24       -11.3274    9.3852   16.3938 H         1 <0>         0.1278
     58 H25        -9.4734   10.0514   14.9217 H         1 <0>         0.1280
@<TRIPOS>BOND
     1    1    2 1
     2    1   35 1
     3    1   36 1
     4    1   37 1
     5    2    3 1
     6    2    4 1
     7    2    5 1
     8    3   38 1
     9    3   39 1
    10    3   40 1
    11    4   41 1
    12    4   42 1
    13    4   43 1
    14    5    6 1
    15    5   44 1
    16    6    7 2
    17    6    8 2
    18    6    9 1
    19    9   14 ar
    20    9   10 ar
    21   10   11 ar
    22   10   45 1
    23   11   12 ar
    24   11   46 1
    25   12   13 ar
    26   12   15 1
    27   13   14 ar
    28   13   47 1
    29   14   48 1
    30   15   16 am
    31   15   49 1
    32   16   17 2
    33   16   18 1
    34   18   19 1
    35   18   50 1
    36   18   51 1
    37   19   20 1
    38   20   25 2
    39   20   21 1
    40   21   22 1
    41   21   23 1
    42   23   24 2
    43   23   26 1
    44   24   25 1
    45   26   27 1
    46   26   52 1
    47   27   28 2
    48   28   29 1
    49   28   53 1
    50   29   34 ar
    51   29   30 ar
    52   30   31 ar
    53   30   54 1
    54   31   32 ar
    55   31   55 1
    56   32   33 ar
    57   32   56 1
    58   33   34 ar
    59   33   57 1
    60   34   58 1
@<TRIPOS>MOLECULE
ZINC19368544
   59    61     0     0     0
SMALL
USER_CHARGES
6-amino-5-[2-[[6-methyl-5-[(2S)-2-methylbutyl]-4-oxo-3H-thieno[5,4-d]pyrimidin-2-yl]sulfanyl]acetyl]-1-propyl-pyrimidine-2,4-dione
@<TRIPOS>ATOM
      1 C1         -3.5589  -13.5919   -4.6928 C.3       1 <0>        -0.1527
      2 C2         -3.5043  -12.3518   -3.7984 C.3       1 <0>        -0.1453
      3 C3         -2.0458  -11.9446   -3.5797 C.3       1 <0>         0.0936
      4 N1         -1.9935  -10.7571   -2.7233 N.am      1 <0>        -0.5438
      5 C4         -2.0256   -9.5174   -3.2955 C.2       1 <0>         0.5707
      6 C5         -1.9691   -8.3840   -2.4659 C.2       1 <0>        -0.4660
      7 C6         -1.8900   -8.5986   -1.0152 C.2       1 <0>         0.5816
      8 O1         -1.8433   -7.6540   -0.2491 O.2       1 <0>        -0.5024
      9 N2         -1.8697   -9.8645   -0.5495 N.am      1 <0>        -0.6755
     10 H1         -1.8108  -10.0515    0.5329 H         1 <0>         0.4656
     11 C7         -1.9206  -10.9092   -1.3918 C.2       1 <0>         0.7161
     12 O2         -1.8996  -12.0339   -0.9314 O.2       1 <0>        -0.5287
     13 C8         -1.9935   -7.0818   -3.0092 C.2       1 <0>         0.4623
     14 O3         -1.9552   -6.9252   -4.2131 O.2       1 <0>        -0.5053
     15 C9         -2.0670   -5.8855   -2.0957 C.3       1 <0>        -0.1388
     16 S1         -2.0824   -4.3704   -3.0859 S.3       1 <0>         0.0509
     17 C10        -2.1696   -3.1667   -1.8020 C.2       1 <0>         0.3701
     18 N3         -2.2023   -1.8407   -2.1234 N.am      1 <0>        -0.6348
     19 H2         -2.1746   -1.5296   -3.1781 H         1 <0>         0.4500
     20 C11        -2.2684   -0.8929   -1.1705 C.2       1 <0>         0.5620
     21 O4         -2.2969    0.2873   -1.4745 O.2       1 <0>        -0.5140
     22 C12        -2.3104   -1.2883    0.2037 C.2       1 <0>        -0.2476
     23 C13        -2.3760   -0.4620    1.3968 C.2       1 <0>        -0.0483
     24 C14        -2.4001   -1.0513    2.6012 C.2       1 <0>        -0.1661
     25 S2         -2.3277   -2.7898    2.2132 S.3       1 <0>         0.1327
     26 C15        -2.2671   -2.6748    0.4435 C.2       1 <0>         0.1192
     27 N4         -2.2019   -3.5589   -0.5445 N.2       1 <0>        -0.4954
     28 C16        -2.4714   -0.3997    3.9582 C.3       1 <0>        -0.0671
     29 C17        -2.4226    1.0399    1.2821 C.3       1 <0>        -0.0698
     30 C18        -0.9977    1.5969    1.2954 C.3       1 <0>        -0.0759
     31 H3         -0.4736    1.2417    2.1950 H         1 <0>         0.0638
     32 C19        -0.2515    1.1187    0.0482 C.3       1 <0>        -0.1483
     33 C20        -1.0479    3.1261    1.3047 C.3       1 <0>        -0.1185
     34 C21         0.3707    3.6821    1.4436 C.3       1 <0>        -0.1546
     35 N5         -2.1055   -9.3816   -4.6469 N.pl3     1 <0>        -0.8137
     36 H4         -4.6075  -13.8847   -4.8500 H         1 <0>         0.0666
     37 H5         -3.0164  -14.4173   -4.2087 H         1 <0>         0.0639
     38 H6         -3.0921  -13.3653   -5.6627 H         1 <0>         0.0599
     39 H7         -4.0468  -11.5264   -4.2825 H         1 <0>         0.0688
     40 H8         -3.9711  -12.5784   -2.8285 H         1 <0>         0.0790
     41 H9         -1.5033  -12.7700   -3.0956 H         1 <0>         0.1187
     42 H10        -1.5789  -11.7181   -4.5496 H         1 <0>         0.0953
     43 H11        -2.9862   -5.9396   -1.4939 H         1 <0>         0.1389
     44 H12        -1.1921   -5.8790   -1.4290 H         1 <0>         0.1454
     45 H13        -2.4738   -1.1757    4.7379 H         1 <0>         0.0744
     46 H14        -3.3933    0.1960    4.0309 H         1 <0>         0.0822
     47 H15        -1.5992    0.2562    4.0963 H         1 <0>         0.0820
     48 H16        -2.9172    1.3205    0.3405 H         1 <0>         0.0898
     49 H17        -2.9865    1.4551    2.1304 H         1 <0>         0.0702
     50 H18         0.7730    1.5192    0.0578 H         1 <0>         0.0458
     51 H19        -0.7756    1.4738   -0.8513 H         1 <0>         0.0764
     52 H20        -0.2154    0.0193    0.0415 H         1 <0>         0.0413
     53 H21        -1.4916    3.4841    0.3640 H         1 <0>         0.0635
     54 H22        -1.6603    3.4677    2.1522 H         1 <0>         0.0600
     55 H23         0.3346    4.7815    1.4503 H         1 <0>         0.0525
     56 H24         0.9830    3.3405    0.5960 H         1 <0>         0.0562
     57 H25         0.8144    3.3241    2.3843 H         1 <0>         0.0521
     58 H26        -2.1308   -8.3788   -5.0984 H         1 <0>         0.4655
     59 H27        -2.1448  -10.2746   -5.2880 H         1 <0>         0.4253
@<TRIPOS>BOND
     1    1    2 1
     2    1   36 1
     3    1   37 1
     4    1   38 1
     5    2    3 1
     6    2   39 1
     7    2   40 1
     8    3    4 1
     9    3   41 1
    10    3   42 1
    11    4   11 am
    12    4    5 1
    13    5    6 2
    14    5   35 1
    15    6    7 1
    16    6   13 1
    17    7    8 2
    18    7    9 am
    19    9   10 1
    20    9   11 am
    21   11   12 2
    22   13   14 2
    23   13   15 1
    24   15   16 1
    25   15   43 1
    26   15   44 1
    27   16   17 1
    28   17   27 2
    29   17   18 1
    30   18   19 1
    31   18   20 am
    32   20   21 2
    33   20   22 1
    34   22   26 2
    35   22   23 1
    36   23   24 2
    37   23   29 1
    38   24   25 1
    39   24   28 1
    40   25   26 1
    41   26   27 1
    42   28   45 1
    43   28   46 1
    44   28   47 1
    45   29   30 1
    46   29   48 1
    47   29   49 1
    48   30   31 1
    49   30   32 1
    50   30   33 1
    51   32   50 1
    52   32   51 1
    53   32   52 1
    54   33   34 1
    55   33   53 1
    56   33   54 1
    57   34   55 1
    58   34   56 1
    59   34   57 1
    60   35   58 1
    61   35   59 1
@<TRIPOS>MOLECULE
ZINC22061246
   68    70     0     0     0
SMALL
USER_CHARGES
(2S,3R,4R,5R,6R)-6-[(E)-2,2-dimethyl-7-(methyl-(1-naphthylmethyl)amino)hept-5-en-3-ynoxy]-3,4,5-trihydroxy-tetrahydropyran-2-carboxylic acid
@<TRIPOS>ATOM
      1 C1         -1.8969   11.0169   -7.5380 C.3       1 <0>        -0.1367
      2 C2         -0.9743    9.9134   -7.0164 C.3       1 <0>         0.0406
      3 C3          0.4565   10.4471   -6.9219 C.3       1 <0>        -0.1389
      4 C4         -1.0118    8.7217   -7.9752 C.3       1 <0>         0.0734
      5 O1         -0.5722    9.1378   -9.2697 O.3       1 <0>        -0.3551
      6 C5         -0.5693    8.0941  -10.2458 C.3       1 <0>         0.2719
      7 H1         -1.5616    7.6197  -10.2268 H         1 <0>         0.0569
      8 C6         -0.2034    8.6757  -11.6139 C.3       1 <0>         0.1255
      9 H2          0.7436    9.2339  -11.5736 H         1 <0>         0.0884
     10 C7         -0.1432    7.5421  -12.6423 C.3       1 <0>         0.0979
     11 H3          0.1072    7.9199  -13.6446 H         1 <0>         0.0670
     12 C8          0.8649    6.4905  -12.1688 C.3       1 <0>         0.0757
     13 H4          0.9466    5.6600  -12.8855 H         1 <0>         0.0734
     14 C9          0.4574    5.9934  -10.7793 C.3       1 <0>         0.0353
     15 H5         -0.5454    5.5413  -10.7857 H         1 <0>         0.0676
     16 O2          0.3908    7.1013   -9.8791 O.3       1 <0>        -0.3714
     17 C10         1.4770    5.0018  -10.2813 C.2       1 <0>         0.4716
     18 O3          2.1486    5.2615   -9.3111 O.co2     1 <0>        -0.6078
     19 O4          1.6391    3.8300  -10.9156 O.co2     1 <0>        -0.7525
     20 O5          2.1687    7.0720  -12.1045 O.3       1 <0>        -0.5926
     21 O6         -1.4340    6.9427  -12.7714 O.3       1 <0>        -0.5829
     22 O7         -1.1938    9.6270  -12.0088 O.3       1 <0>        -0.5827
     23 C11        -1.4271    9.4847   -5.6829 C.1       1 <0>        -0.0577
     24 C12        -1.7883    9.1429   -4.6195 C.1       1 <0>        -0.2190
     25 C13        -2.2288    8.7259   -3.3223 C.2       1 <0>         0.0608
     26 C14        -1.5721    7.7706   -2.6729 C.2       1 <0>        -0.2376
     27 C15        -2.0357    7.3318   -1.3078 C.3       1 <0>         0.0387
     28 N1         -2.2586    5.8798   -1.3097 N.4       1 <0>        -0.4005
     29 C16        -3.3774    5.5201   -2.1911 C.3       1 <0>        -0.0499
     30 C17        -2.4804    5.3795    0.0536 C.3       1 <0>         0.0446
     31 C18        -2.4600    3.8727    0.0452 C.ar      1 <0>        -0.1544
     32 C19        -3.6276    3.1727    0.0365 C.ar      1 <0>        -0.0620
     33 C20        -3.6286    1.7793    0.0288 C.ar      1 <0>        -0.1314
     34 C21        -2.4622    1.0777    0.0195 C.ar      1 <0>        -0.0616
     35 C22        -1.2371    1.7656    0.0175 C.ar      1 <0>        -0.0580
     36 C23        -1.2360    3.1831    0.0306 C.ar      1 <0>        -0.0308
     37 C24        -0.0105    3.8711    0.0227 C.ar      1 <0>        -0.1504
     38 C25         1.1555    3.1695    0.0081 C.ar      1 <0>        -0.0792
     39 C26         1.1545    1.7758    0.0006 C.ar      1 <0>        -0.1159
     40 C27        -0.0126    1.0758    0.0080 C.ar      1 <0>        -0.0866
     41 H6         -2.9255   10.6331   -7.6059 H         1 <0>         0.0569
     42 H7         -1.5585   11.3372   -8.5344 H         1 <0>         0.0854
     43 H8         -1.8699   11.8737   -6.8486 H         1 <0>         0.0561
     44 H9          1.1197    9.6537   -6.5469 H         1 <0>         0.0649
     45 H10         0.4835   11.3039   -6.2325 H         1 <0>         0.0562
     46 H11         0.7949   10.7674   -7.9183 H         1 <0>         0.0843
     47 H12        -0.3485    7.9284   -7.6002 H         1 <0>         0.0708
     48 H13        -2.0404    8.3379   -8.0431 H         1 <0>         0.0495
     49 H14         3.0269    6.4639  -11.7825 H         1 <0>         0.4212
     50 H15        -1.5845    6.1059  -13.4694 H         1 <0>         0.4101
     51 H16        -1.0993   10.1522  -12.9707 H         1 <0>         0.4039
     52 H17        -3.1109    9.1965   -2.8635 H         1 <0>         0.1446
     53 H18        -0.6900    7.3000   -3.1317 H         1 <0>         0.1395
     54 H19        -1.2681    7.5840   -0.5613 H         1 <0>         0.1383
     55 H20        -2.9747    7.8466   -1.0564 H         1 <0>         0.1318
     56 H21        -3.5220    4.4298   -2.1737 H         1 <0>         0.1208
     57 H22        -3.1537    5.8440   -3.2183 H         1 <0>         0.1260
     58 H23        -4.2942    6.0172   -1.8413 H         1 <0>         0.1199
     59 H24        -1.6851    5.7533    0.7153 H         1 <0>         0.1375
     60 H25        -3.4566    5.7310    0.4189 H         1 <0>         0.1363
     61 H26        -4.5671    3.7052    0.0438 H         1 <0>         0.1328
     62 H27        -4.5689    1.2481    0.0307 H         1 <0>         0.1362
     63 H28        -2.4783   -0.0022    0.0133 H         1 <0>         0.1384
     64 H29         0.0058    4.9510    0.0277 H         1 <0>         0.1216
     65 H30         2.0958    3.7008    0.0020 H         1 <0>         0.1325
     66 H31         2.0940    1.2432   -0.0117 H         1 <0>         0.1332
     67 H32         0.0021   -0.0041    0.0020 H         1 <0>         0.1364
     68 H33        -1.3507    5.3989   -1.7027 H         1 <0>         0.4412
@<TRIPOS>BOND
     1    1    2 1
     2    1   41 1
     3    1   42 1
     4    1   43 1
     5    2    3 1
     6    2    4 1
     7    2   23 1
     8    3   44 1
     9    3   45 1
    10    3   46 1
    11    4    5 1
    12    4   47 1
    13    4   48 1
    14    5    6 1
    15    6    7 1
    16    6   16 1
    17    6    8 1
    18    8    9 1
    19    8   10 1
    20    8   22 1
    21   10   11 1
    22   10   12 1
    23   10   21 1
    24   12   13 1
    25   12   14 1
    26   12   20 1
    27   14   15 1
    28   14   16 1
    29   14   17 1
    30   17   18 2
    31   17   19 1
    32   20   49 1
    33   21   50 1
    34   22   51 1
    35   23   24 3
    36   24   25 1
    37   25   26 2
    38   25   52 1
    39   26   27 1
    40   26   53 1
    41   27   28 1
    42   27   54 1
    43   27   55 1
    44   28   29 1
    45   28   30 1
    46   28   68 1
    47   29   56 1
    48   29   57 1
    49   29   58 1
    50   30   31 1
    51   30   59 1
    52   30   60 1
    53   31   36 ar
    54   31   32 ar
    55   32   33 ar
    56   32   61 1
    57   33   34 ar
    58   33   62 1
    59   34   35 ar
    60   34   63 1
    61   35   40 ar
    62   35   36 ar
    63   36   37 ar
    64   37   38 ar
    65   37   64 1
    66   38   39 ar
    67   38   65 1
    68   39   40 ar
    69   39   66 1
    70   40   67 1
@<TRIPOS>MOLECULE
ZINC39362751
   57    60     0     0     0
SMALL
USER_CHARGES

@<TRIPOS>ATOM
      1 C1          1.2746    1.2268   -0.1574 C.3       1 <0>        -0.1158
      2 C2          0.6377   -0.1368   -0.0791 C.ar      1 <0>        -0.0695
      3 C3          0.0494   -0.6900   -1.2019 C.ar      1 <0>        -0.1322
      4 C4         -0.5356   -1.9409   -1.1342 C.ar      1 <0>        -0.0959
      5 C5         -0.5341   -2.6422    0.0558 C.ar      1 <0>        -0.1206
      6 C6          0.0557   -2.0896    1.1849 C.ar      1 <0>         0.1473
      7 C7          0.6471   -0.8350    1.1123 C.ar      1 <0>        -0.1270
      8 N1          0.0584   -2.7973    2.3920 N.am      1 <0>        -0.6612
      9 C8          0.1556   -2.1344    3.5615 C.2       1 <0>         0.5341
     10 O1          0.1397   -0.9217    3.5744 O.2       1 <0>        -0.4974
     11 C9          0.2841   -2.9001    4.8531 C.3       1 <0>        -0.1518
     12 S1          0.3939   -1.7344    6.2387 S.3       1 <0>         0.0789
     13 C10         0.5377   -2.7702    7.6568 C.2       1 <0>         0.2626
     14 N2          0.5573   -4.0595    7.6112 N.2       1 <0>        -0.2964
     15 N3          0.6800   -4.6162    8.8901 N.pl3     1 <0>        -0.6625
     16 C11         0.7418   -3.4815    9.8275 C.3       1 <0>         0.3785
     17 H1          1.6890   -3.4821   10.3668 H         1 <0>         0.0865
     18 N4          0.6495   -2.2975    8.9565 N.pl3     1 <0>        -0.5783
     19 C12         0.6679   -0.9587    9.3606 C.ar      1 <0>         0.1465
     20 C13         1.8105   -0.4229    9.9408 C.ar      1 <0>        -0.0855
     21 C14         1.8266    0.8995   10.3387 C.ar      1 <0>        -0.1390
     22 C15         0.7046    1.6911   10.1600 C.ar      1 <0>         0.1071
     23 C16        -0.4357    1.1591    9.5819 C.ar      1 <0>        -0.1372
     24 C17        -0.4545   -0.1612    9.1772 C.ar      1 <0>        -0.0848
     25 F1          0.7222    2.9842   10.5508 F         1 <0>        -0.1338
     26 C18        -0.4323   -3.5301   10.8073 C.3       1 <0>        -0.1225
     27 C19        -0.2921   -4.7362   11.6998 C.2       1 <0>         0.2040
     28 N5         -0.7529   -5.9559   11.2847 N.am      1 <0>        -0.6363
     29 C20        -0.6322   -7.0389   12.0738 C.2       1 <0>         0.7010
     30 O2         -1.0486   -8.1131   11.6851 O.2       1 <0>        -0.5347
     31 N6         -0.0565   -6.9501   13.2872 N.am      1 <0>        -0.6586
     32 C21         0.4104   -5.7663   13.7328 C.2       1 <0>         0.5504
     33 O3          0.9315   -5.6851   14.8305 O.2       1 <0>        -0.5076
     34 C22         0.2940   -4.6196   12.9107 C.2       1 <0>        -0.2828
     35 C23        -1.1724   -4.0055    0.1288 C.3       1 <0>        -0.1158
     36 H2          2.3229    1.1226   -0.4371 H         1 <0>         0.0715
     37 H3          0.7569    1.8271   -0.9055 H         1 <0>         0.0679
     38 H4          1.2046    1.7168    0.8137 H         1 <0>         0.0689
     39 H5          0.0467   -0.1435   -2.1334 H         1 <0>         0.1238
     40 H6         -0.9944   -2.3700   -2.0127 H         1 <0>         0.1269
     41 H7          1.1103   -0.4042    1.9877 H         1 <0>         0.1459
     42 H8         -0.0096   -3.7649    2.3871 H         1 <0>         0.4141
     43 H9         -0.5887   -3.5397    4.9847 H         1 <0>         0.1276
     44 H10         1.1838   -3.5147    4.8232 H         1 <0>         0.1289
     45 H11         0.7165   -5.5594    9.1138 H         1 <0>         0.4437
     46 H12         2.6857   -1.0401   10.0810 H         1 <0>         0.1373
     47 H13         2.7149    1.3165   10.7898 H         1 <0>         0.1437
     48 H14        -1.3097    1.7783    9.4435 H         1 <0>         0.1441
     49 H15        -1.3425   -0.5745    8.7222 H         1 <0>         0.1389
     50 H16        -0.4351   -2.6260   11.4161 H         1 <0>         0.1180
     51 H17        -1.3673   -3.5965   10.2510 H         1 <0>         0.1006
     52 H18         0.0226   -7.7409   13.8434 H         1 <0>         0.4335
     53 H19         0.6657   -3.6637   13.2489 H         1 <0>         0.1735
     54 H20        -1.1709   -6.0404   10.4135 H         1 <0>         0.4349
     55 H21        -0.4303   -4.7673   -0.1100 H         1 <0>         0.0718
     56 H22        -1.5552   -4.1740    1.1353 H         1 <0>         0.0615
     57 H23        -1.9932   -4.0610   -0.5862 H         1 <0>         0.0732
@<TRIPOS>BOND
     1    1    2 1
     2    1   36 1
     3    1   37 1
     4    1   38 1
     5    2    7 ar
     6    2    3 ar
     7    3    4 ar
     8    3   39 1
     9    4    5 ar
    10    4   40 1
    11    5    6 ar
    12    5   35 1
    13    6    7 ar
    14    6    8 1
    15    7   41 1
    16    8    9 am
    17    8   42 1
    18    9   10 2
    19    9   11 1
    20   11   12 1
    21   11   43 1
    22   11   44 1
    23   12   13 1
    24   13   18 1
    25   13   14 2
    26   14   15 1
    27   15   16 1
    28   15   45 1
    29   16   17 1
    30   16   18 1
    31   16   26 1
    32   18   19 1
    33   19   24 ar
    34   19   20 ar
    35   20   21 ar
    36   20   46 1
    37   21   22 ar
    38   21   47 1
    39   22   23 ar
    40   22   25 1
    41   23   24 ar
    42   23   48 1
    43   24   49 1
    44   26   50 1
    45   26   51 1
    46   26   27 1
    47   27   34 2
    48   27   28 1
    49   28   29 am
    50   28   54 1
    51   29   30 2
    52   29   31 am
    53   31   52 1
    54   31   32 am
    55   32   33 2
    56   32   34 1
    57   34   53 1
    58   35   55 1
    59   35   56 1
    60   35   57 1
@<TRIPOS>MOLECULE
ZINC59818993
   41    42     0     0     0
SMALL
USER_CHARGES

@<TRIPOS>ATOM
      1 C1         -0.0187    1.5258    0.0104 C.3       1 <0>        -0.1664
      2 C2          0.0021   -0.0041    0.0020 C.3       1 <0>         0.1126
      3 N1         -1.3723   -0.5112    0.0124 N.am      1 <0>        -0.7315
      4 C3         -1.6006   -1.8394    0.0075 C.2       1 <0>         0.5190
      5 O1         -0.6682   -2.6149   -0.0056 O.2       1 <0>        -0.5344
      6 C4         -3.0144   -2.3611    0.0182 C.3       1 <0>        -0.1265
      7 C5         -2.9937   -3.8909    0.0097 C.3       1 <0>        -0.1026
      8 S1         -4.6955   -4.5188    0.0226 S.3       1 <0>         0.0323
      9 C6         -4.5037   -6.2703    0.0114 C.2       1 <0>         0.2312
     10 N2         -5.5011   -7.1611    0.0108 N.2       1 <0>        -0.5186
     11 C7         -5.0055   -8.3808    0.0013 C.2       1 <0>         0.5570
     12 N3         -3.6589   -8.2835   -0.0044 N.pl3     1 <0>        -0.5011
     13 N4         -3.3595   -6.9116   -0.0034 N.2       1 <0>        -0.3103
     14 N5         -5.7357   -9.5549   -0.0022 N.pl3     1 <0>        -0.5457
     15 N6         -7.1359   -9.5091    0.0041 N.2       1 <0>        -0.1907
     16 C8         -7.8215  -10.6115    0.0008 C.2       1 <0>         0.1014
     17 C9         -9.2950  -10.5632    0.0074 C.ar      1 <0>        -0.0479
     18 C10        -9.9557   -9.3320    0.0114 C.ar      1 <0>        -0.0227
     19 C11       -11.3342   -9.2915    0.0176 C.ar      1 <0>        -0.1206
     20 C12       -12.0659  -10.4724    0.0204 C.ar      1 <0>         0.1796
     21 C13       -11.4131  -11.6988    0.0164 C.ar      1 <0>        -0.1215
     22 C14       -10.0349  -11.7485    0.0038 C.ar      1 <0>        -0.0341
     23 Br1       -12.4157  -13.3021    0.0201 Br        1 <0>        -0.0160
     24 O2        -13.4241  -10.4279    0.0274 O.3       1 <0>        -0.4725
     25 Br2       -12.2297   -7.6260    0.0231 Br        1 <0>        -0.0137
     26 H1          1.0039    1.9031    0.0027 H         1 <0>         0.0753
     27 H2         -0.5459    1.8868   -0.8726 H         1 <0>         0.0627
     28 H3         -0.5289    1.8773    0.9072 H         1 <0>         0.0627
     29 H4          0.5123   -0.3556   -0.8948 H         1 <0>         0.0683
     30 H5          0.5293   -0.3651    0.8851 H         1 <0>         0.0683
     31 H6         -2.1181    0.1091    0.0229 H         1 <0>         0.4028
     32 H7         -3.5246   -2.0095    0.9150 H         1 <0>         0.1079
     33 H8         -3.5416   -2.0000   -0.8649 H         1 <0>         0.1078
     34 H9         -2.4835   -4.2424   -0.8870 H         1 <0>         0.1011
     35 H10        -2.4665   -4.2520    0.8928 H         1 <0>         0.1011
     36 H11        -5.2785  -10.4104   -0.0090 H         1 <0>         0.4031
     37 H12        -7.3125  -11.5639   -0.0068 H         1 <0>         0.1312
     38 H13        -9.3877   -8.4134    0.0100 H         1 <0>         0.1589
     39 H14        -9.5282  -12.7023   -0.0038 H         1 <0>         0.1504
     40 H15       -13.8218  -10.4143   -0.8539 H         1 <0>         0.4021
     41 H16        -3.0237   -9.0165   -0.0117 H         1 <0>         0.4400
@<TRIPOS>BOND
     1    1    2 1
     2    1   26 1
     3    1   27 1
     4    1   28 1
     5    2    3 1
     6    2   29 1
     7    2   30 1
     8    3    4 am
     9    3   31 1
    10    4    5 2
    11    4    6 1
    12    6    7 1
    13    6   32 1
    14    6   33 1
    15    7    8 1
    16    7   34 1
    17    7   35 1
    18    8    9 1
    19    9   13 2
    20    9   10 1
    21   10   11 2
    22   11   12 1
    23   11   14 1
    24   12   13 1
    25   12   41 1
    26   14   15 1
    27   14   36 1
    28   15   16 2
    29   16   17 1
    30   16   37 1
    31   17   22 ar
    32   17   18 ar
    33   18   19 ar
    34   18   38 1
    35   19   20 ar
    36   19   25 1
    37   20   21 ar
    38   20   24 1
    39   21   22 ar
    40   21   23 1
    41   22   39 1
    42   24   40 1
@<TRIPOS>MOLECULE
ZINC12004179
   65    68     0     0     0
SMALL
USER_CHARGES
(5S)-5-[(2-fluorophenyl)methyl]-5-[1-[(2,3,4-trimethoxyphenyl)methyl]-4-piperidyl]imidazolidine-2,4-dione
@<TRIPOS>ATOM
      1 C1          2.4330    4.1141    0.0005 C.3       1 <0>         0.0179
      2 O1          1.1661    3.4531    0.0090 O.3       1 <0>        -0.2934
      3 C2          1.1793    2.0932    0.0020 C.ar      1 <0>         0.1586
      4 C3          2.3864    1.4105   -0.0122 C.ar      1 <0>        -0.1994
      5 C4          2.4008    0.0285   -0.0203 C.ar      1 <0>        -0.0402
      6 C5          1.2131   -0.6790   -0.0132 C.ar      1 <0>        -0.2070
      7 C6          0.0021   -0.0041    0.0020 C.ar      1 <0>         0.1314
      8 C7         -0.0168    1.3858    0.0097 C.ar      1 <0>         0.0533
      9 O2         -1.2035    2.0520    0.0189 O.3       1 <0>        -0.3177
     10 C8         -1.7631    2.3627    1.2965 C.3       1 <0>         0.0360
     11 O3         -1.1658   -0.7009    0.0099 O.3       1 <0>        -0.3225
     12 C9         -1.7355   -1.0265   -1.2595 C.3       1 <0>         0.0374
     13 C10         1.2347   -2.1858   -0.0215 C.3       1 <0>         0.0557
     14 C11         1.7947   -1.9287   -2.3626 C.3       1 <0>        -0.0072
     15 C12         1.4067   -2.3591   -3.7790 C.3       1 <0>        -0.1462
     16 C13         1.6436   -3.8640   -3.9328 C.3       1 <0>        -0.0935
     17 C14         0.8299   -4.6117   -2.8728 C.3       1 <0>        -0.1532
     18 C15         1.2346   -4.1160   -1.4826 C.3       1 <0>         0.0022
     19 C16         1.2016   -4.3127   -5.3271 C.3       1 <0>         0.1333
     20 C17         1.4037   -5.8055   -5.4960 C.2       1 <0>         0.5348
     21 O4          2.4511   -6.4135   -5.4406 O.2       1 <0>        -0.4501
     22 N1          0.1768   -6.3162   -5.7199 N.am      1 <0>        -0.6767
     23 C18        -0.7626   -5.3636   -5.7159 C.2       1 <0>         0.7042
     24 O5         -1.9450   -5.5800   -5.8953 O.2       1 <0>        -0.5235
     25 N2         -0.2521   -4.1395   -5.4908 N.am      1 <0>        -0.7210
     26 C19         1.9639   -3.5408   -6.4060 C.3       1 <0>        -0.0752
     27 C20         1.4252   -3.9111   -7.7639 C.ar      1 <0>        -0.1437
     28 C21         2.0438   -4.8986   -8.5073 C.ar      1 <0>        -0.0863
     29 C22         1.5465   -5.2424   -9.7503 C.ar      1 <0>        -0.1231
     30 C23         0.4368   -4.5912  -10.2564 C.ar      1 <0>        -0.0793
     31 C24        -0.1799   -3.5998   -9.5175 C.ar      1 <0>        -0.1492
     32 C25         0.3140   -3.2584   -8.2696 C.ar      1 <0>         0.1121
     33 F1         -0.2883   -2.2894   -7.5461 F         1 <0>        -0.1388
     34 H1          2.9844    3.8312   -0.8961 H         1 <0>         0.0644
     35 H2          2.2797    5.1933    0.0074 H         1 <0>         0.1137
     36 H3          3.0011    3.8222    0.8837 H         1 <0>         0.0646
     37 H4          3.3164    1.9595   -0.0178 H         1 <0>         0.1508
     38 H5          3.3425   -0.5002   -0.0317 H         1 <0>         0.1458
     39 H6         -2.7060    2.8924    1.1610 H         1 <0>         0.1030
     40 H7         -1.9408    1.4402    1.8494 H         1 <0>         0.0522
     41 H8         -1.0694    2.9923    1.8537 H         1 <0>         0.0513
     42 H9         -2.6620   -1.5810   -1.1105 H         1 <0>         0.1191
     43 H10        -1.9455   -0.1092   -1.8096 H         1 <0>         0.0780
     44 H11        -1.0336   -1.6377   -1.8268 H         1 <0>         0.0147
     45 H12         2.2088   -2.5371    0.3188 H         1 <0>         0.1424
     46 H13         0.4591   -2.5640    0.6445 H         1 <0>         0.1392
     47 H14         1.6137   -0.8602   -2.2453 H         1 <0>         0.1325
     48 H15         2.8512   -2.1384   -2.1958 H         1 <0>         0.1379
     49 H16         2.0164   -1.8189   -4.5033 H         1 <0>         0.1242
     50 H17         0.3536   -2.1370   -3.9513 H         1 <0>         0.0885
     51 H18         2.7033   -4.0815   -3.7990 H         1 <0>         0.1209
     52 H19         1.0275   -5.6809   -2.9496 H         1 <0>         0.1129
     53 H20        -0.2324   -4.4257   -3.0305 H         1 <0>         0.0937
     54 H21         2.2938   -4.3155   -1.3200 H         1 <0>         0.1375
     55 H22         0.6469   -4.6362   -0.7263 H         1 <0>         0.1343
     56 H23        -0.0030   -7.2582   -5.8654 H         1 <0>         0.4385
     57 H24        -0.7452   -3.3054   -5.4448 H         1 <0>         0.4404
     58 H25         1.8375   -2.4702   -6.2446 H         1 <0>         0.1010
     59 H26         3.0229   -3.7936   -6.3539 H         1 <0>         0.1091
     60 H27         2.9133   -5.4049   -8.1148 H         1 <0>         0.1347
     61 H28         2.0276   -6.0175  -10.3284 H         1 <0>         0.1354
     62 H29         0.0516   -4.8579  -11.2295 H         1 <0>         0.1385
     63 H30        -1.0465   -3.0910   -9.9132 H         1 <0>         0.1396
     64 N3          0.9592   -2.6665   -1.3912 N.4       1 <0>        -0.4036
     65 H31        -0.0303   -2.5011   -1.6098 H         1 <0>         0.4149
@<TRIPOS>BOND
     1    1    2 1
     2    1   34 1
     3    1   35 1
     4    1   36 1
     5    2    3 1
     6    3    8 ar
     7    3    4 ar
     8    4    5 ar
     9    4   37 1
    10    5    6 ar
    11    5   38 1
    12    6    7 ar
    13    6   13 1
    14    7    8 ar
    15    7   11 1
    16    8    9 1
    17    9   10 1
    18   10   39 1
    19   10   40 1
    20   10   41 1
    21   11   12 1
    22   12   42 1
    23   12   43 1
    24   12   44 1
    25   13   45 1
    26   13   46 1
    27   13   64 1
    28   14   15 1
    29   14   47 1
    30   14   48 1
    31   14   64 1
    32   15   16 1
    33   15   49 1
    34   15   50 1
    35   16   17 1
    36   16   19 1
    37   16   51 1
    38   17   18 1
    39   17   52 1
    40   17   53 1
    41   18   54 1
    42   18   55 1
    43   18   64 1
    44   19   25 1
    45   19   20 1
    46   19   26 1
    47   20   21 2
    48   20   22 am
    49   22   23 am
    50   22   56 1
    51   23   24 2
    52   23   25 am
    53   25   57 1
    54   26   27 1
    55   26   58 1
    56   26   59 1
    57   27   32 ar
    58   27   28 ar
    59   28   29 ar
    60   28   60 1
    61   29   30 ar
    62   29   61 1
    63   30   31 ar
    64   30   62 1
    65   31   32 ar
    66   31   63 1
    67   32   33 1
    68   64   65 1
@<TRIPOS>MOLECULE
ZINC15000134
   69    72     0     0     0
SMALL
USER_CHARGES
2-[(3S)-3-[[[1-[4-(dimethylsulfamoylamino)phenyl]-4-piperidyl]amino]methyl]-1-piperidyl]pyrimidine
@<TRIPOS>ATOM
      1 C1         -8.1835    2.9056   -2.4224 C.3       1 <0>         0.0919
      2 N1         -9.1482    2.3433   -1.4740 N.pl3     1 <0>        -1.0081
      3 C2        -10.0513    3.2296   -0.7356 C.3       1 <0>         0.0821
      4 S1         -9.2180    0.7059   -1.2367 S.o2      1 <0>         2.7845
      5 O1         -8.5730    0.1061   -2.3518 O.2       1 <0>        -0.9655
      6 O2        -10.5599    0.4041   -0.8798 O.2       1 <0>        -0.9626
      7 N2         -8.2871    0.3632    0.0893 N.pl3     1 <0>        -1.0696
      8 C3         -6.9174    0.6528    0.0767 C.ar      1 <0>         0.1354
      9 C4         -6.3322    1.2886    1.1637 C.ar      1 <0>        -0.1033
     10 C5         -4.9811    1.5738    1.1515 C.ar      1 <0>        -0.1145
     11 C6         -4.2077    1.2245    0.0525 C.ar      1 <0>         0.0877
     12 C7         -4.7939    0.5939   -1.0369 C.ar      1 <0>        -0.1407
     13 C8         -6.1440    0.3039   -1.0225 C.ar      1 <0>        -0.1266
     14 N3         -2.8378    1.5133    0.0403 N.pl3     1 <0>        -0.4875
     15 C9         -2.2156    1.0603   -1.2103 C.3       1 <0>         0.0496
     16 C10        -0.7564    1.5198   -1.2512 C.3       1 <0>        -0.1401
     17 C11        -0.0093    0.9384   -0.0478 C.3       1 <0>         0.0255
     18 C12        -0.7046    1.3856    1.2410 C.3       1 <0>        -0.1384
     19 C13        -2.1667    0.9300    1.2090 C.3       1 <0>         0.0573
     20 C14         2.2604    0.4942    0.6691 C.3       1 <0>        -0.0001
     21 C15         3.6931    1.0307    0.6448 C.3       1 <0>        -0.1118
     22 H1          3.9972    1.2095   -0.3865 H         1 <0>         0.1086
     23 C16         4.6336    0.0059    1.2848 C.3       1 <0>        -0.1136
     24 C17         6.0547    0.5754    1.3107 C.3       1 <0>        -0.1175
     25 C18         6.0547    1.8986    2.0797 C.3       1 <0>         0.0599
     26 N4          5.1407    2.8451    1.4277 N.pl3     1 <0>        -0.4661
     27 C19         3.7615    2.3407    1.4330 C.3       1 <0>         0.0582
     28 C20         5.2143    4.0938    2.0200 C.ar      1 <0>         0.4680
     29 N5          5.5052    5.1482    1.2722 N.ar      1 <0>        -0.4920
     30 C21         5.5780    6.3563    1.8059 C.ar      1 <0>         0.1602
     31 C22         5.3569    6.5092    3.1657 C.ar      1 <0>        -0.2216
     32 C23         5.0604    5.3844    3.9194 C.ar      1 <0>         0.1613
     33 N6          4.9976    4.2057    3.3223 N.ar      1 <0>        -0.5435
     34 H2         -8.6385    2.9654   -3.4110 H         1 <0>         0.0628
     35 H3         -7.8922    3.9038   -2.0955 H         1 <0>         0.0743
     36 H4         -7.3020    2.2659   -2.4662 H         1 <0>         0.0708
     37 H5         -9.6208    3.4561    0.2399 H         1 <0>         0.0564
     38 H6        -10.1902    4.1547   -1.2950 H         1 <0>         0.0825
     39 H7        -11.0146    2.7375   -0.6022 H         1 <0>         0.0821
     40 H8         -8.6907   -0.0382    0.8746 H         1 <0>         0.4268
     41 H9         -6.9337    1.5597    2.0188 H         1 <0>         0.1341
     42 H10        -4.5260    2.0683    1.9969 H         1 <0>         0.1310
     43 H11        -4.1932    0.3261   -1.8935 H         1 <0>         0.1340
     44 H12        -6.5992   -0.1906   -1.8679 H         1 <0>         0.1583
     45 H13        -2.7538    1.4842   -2.0580 H         1 <0>         0.1064
     46 H14        -2.2553   -0.0277   -1.2624 H         1 <0>         0.0600
     47 H15        -0.7165    2.6084   -1.2131 H         1 <0>         0.0985
     48 H16        -0.2904    1.1701   -2.1725 H         1 <0>         0.0993
     49 H17        -0.0155   -0.1500   -0.1063 H         1 <0>         0.1399
     50 H18        -0.2017    0.9400    2.0993 H         1 <0>         0.0956
     51 H19        -0.6639    2.4721    1.3184 H         1 <0>         0.0973
     52 H20        -2.6694    1.2593    2.1184 H         1 <0>         0.1032
     53 H21        -2.2066   -0.1574    1.1455 H         1 <0>         0.0574
     54 H22         1.9249    0.4009    1.7019 H         1 <0>         0.1319
     55 H23         2.2302   -0.4831    0.1875 H         1 <0>         0.1388
     56 H24         4.3062   -0.2028    2.3032 H         1 <0>         0.0752
     57 H25         4.6199   -0.9150    0.7018 H         1 <0>         0.0826
     58 H26         6.7213   -0.1320    1.8039 H         1 <0>         0.0873
     59 H27         6.3964    0.7476    0.2901 H         1 <0>         0.0810
     60 H28         5.7261    1.7234    3.1040 H         1 <0>         0.0600
     61 H29         7.0625    2.3140    2.0877 H         1 <0>         0.0834
     62 H30         3.1037    3.0771    0.9714 H         1 <0>         0.0667
     63 H31         3.4436    2.1634    2.4604 H         1 <0>         0.0644
     64 H32         5.8115    7.2125    1.1905 H         1 <0>         0.1781
     65 H33         5.4141    7.4837    3.6278 H         1 <0>         0.1568
     66 H34         4.8825    5.4693    4.9812 H         1 <0>         0.1733
     67 N7          1.3810    1.4313   -0.0551 N.4       1 <0>        -0.5197
     68 H35         1.4169    2.3505    0.4009 H         1 <0>         0.4285
     69 H36         1.7046    1.5179   -1.0258 H         1 <0>         0.4339
@<TRIPOS>BOND
     1    1    2 1
     2    1   34 1
     3    1   35 1
     4    1   36 1
     5    2    3 1
     6    2    4 1
     7    3   37 1
     8    3   38 1
     9    3   39 1
    10    4    5 2
    11    4    6 2
    12    4    7 1
    13    7    8 1
    14    7   40 1
    15    8   13 ar
    16    8    9 ar
    17    9   10 ar
    18    9   41 1
    19   10   11 ar
    20   10   42 1
    21   11   12 ar
    22   11   14 1
    23   12   13 ar
    24   12   43 1
    25   13   44 1
    26   14   19 1
    27   14   15 1
    28   15   16 1
    29   15   45 1
    30   15   46 1
    31   16   17 1
    32   16   47 1
    33   16   48 1
    34   17   18 1
    35   17   49 1
    36   17   67 1
    37   18   19 1
    38   18   50 1
    39   18   51 1
    40   19   52 1
    41   19   53 1
    42   20   21 1
    43   20   54 1
    44   20   55 1
    45   20   67 1
    46   21   22 1
    47   21   27 1
    48   21   23 1
    49   23   24 1
    50   23   56 1
    51   23   57 1
    52   24   25 1
    53   24   58 1
    54   24   59 1
    55   25   26 1
    56   25   60 1
    57   25   61 1
    58   26   27 1
    59   26   28 1
    60   27   62 1
    61   27   63 1
    62   28   33 ar
    63   28   29 ar
    64   29   30 ar
    65   30   31 ar
    66   30   64 1
    67   31   32 ar
    68   31   65 1
    69   32   33 ar
    70   32   66 1
    71   67   68 1
    72   67   69 1
@<TRIPOS>MOLECULE
ZINC36367446
   70    73     0     0     0
SMALL
USER_CHARGES

@<TRIPOS>ATOM
      1 C1          0.5889   -0.2968   -1.5987 C.3       1 <0>        -0.0532
      2 N1          0.0820   -0.0333   -0.2453 N.4       1 <0>        -0.5117
      3 C2         -1.3032   -0.5106   -0.1397 C.3       1 <0>         0.0595
      4 H1         -1.8963   -0.0576   -0.9341 H         1 <0>         0.1545
      5 C3         -1.3208   -2.0167   -0.3078 C.3       1 <0>        -0.1318
      6 C4         -2.6555   -2.6039    0.1420 C.3       1 <0>        -0.0750
      7 C5         -3.7860   -1.7614   -0.3905 C.ar      1 <0>        -0.0403
      8 C6         -4.5297   -2.1993   -1.4666 C.ar      1 <0>        -0.1939
      9 C7         -5.5780   -1.4254   -1.9478 C.ar      1 <0>         0.1368
     10 C8         -5.8844   -0.2076   -1.3501 C.ar      1 <0>         0.0498
     11 C9         -5.1370    0.2410   -0.2690 C.ar      1 <0>         0.1323
     12 C10        -4.0804   -0.5410    0.2073 C.ar      1 <0>        -0.1028
     13 C11        -3.2562   -0.0517    1.3526 C.2       1 <0>        -0.1158
     14 C12        -1.8698   -0.0893    1.2011 C.2       1 <0>         0.0368
     15 C13        -0.9746    0.2192    2.1564 C.2       1 <0>        -0.2742
     16 C14        -1.1020    0.6542    3.4436 C.2       1 <0>         0.3870
     17 O1         -0.0581    0.7680    4.0724 O.2       1 <0>        -0.5072
     18 C15        -2.2646    0.9861    4.1354 C.2       1 <0>         0.2214
     19 C16        -3.5331    0.8589    3.6534 C.2       1 <0>        -0.2154
     20 C17        -3.9376    0.3985    2.4550 C.2       1 <0>         0.0563
     21 N2         -2.1196    1.4860    5.4185 N.pl3     1 <0>        -0.6782
     22 C18        -3.3033    1.8541    6.1993 C.3       1 <0>         0.1031
     23 C19        -2.8681    2.3743    7.5707 C.3       1 <0>         0.0414
     24 N3         -4.0550    2.7434    8.3537 N.3       1 <0>        -0.5324
     25 C20        -4.7451    3.8943    7.7533 C.3       1 <0>         0.0109
     26 C21        -6.0053    4.2068    8.5646 C.3       1 <0>         0.0622
     27 O2         -5.6422    4.4439    9.9275 O.3       1 <0>        -0.3818
     28 C22        -4.9685    3.3430   10.5436 C.3       1 <0>         0.0622
     29 C23        -3.6978    3.0217    9.7524 C.3       1 <0>         0.0181
     30 O3         -5.4300    1.4298    0.3207 O.3       1 <0>        -0.3227
     31 C24        -4.8536    2.6015   -0.2598 C.3       1 <0>         0.0395
     32 O4         -6.9154    0.5437   -1.8243 O.3       1 <0>        -0.3197
     33 C25        -8.2045    0.3103   -1.2535 C.3       1 <0>         0.0375
     34 O5         -6.3079   -1.8603   -3.0088 O.3       1 <0>        -0.2982
     35 C26        -5.9406   -3.1192   -3.5766 C.3       1 <0>         0.0215
     36 H2          1.6167    0.0574   -1.6771 H         1 <0>         0.1314
     37 H3          0.5578   -1.3683   -1.7960 H         1 <0>         0.1271
     38 H4         -0.0318    0.2250   -2.3271 H         1 <0>         0.1258
     39 H5          0.6565   -0.5163    0.4290 H         1 <0>         0.4309
     40 H6         -1.1581   -2.2613   -1.3575 H         1 <0>         0.1012
     41 H7         -0.5192   -2.4525    0.2885 H         1 <0>         0.0964
     42 H8         -2.7509   -3.6210   -0.2381 H         1 <0>         0.0994
     43 H9         -2.6964   -2.6192    1.2312 H         1 <0>         0.0932
     44 H10        -4.2971   -3.1443   -1.9349 H         1 <0>         0.1436
     45 H11         0.0514    0.0980    1.8416 H         1 <0>         0.1092
     46 H12        -4.3207    1.1726    4.3226 H         1 <0>         0.1361
     47 H13        -5.0112    0.3753    2.3392 H         1 <0>         0.1322
     48 H14        -1.2343    1.5924    5.8004 H         1 <0>         0.4200
     49 H15        -3.8571    2.6325    5.6745 H         1 <0>         0.0819
     50 H16        -3.9402    0.9790    6.3280 H         1 <0>         0.0925
     51 H17        -2.3143    1.5958    8.0956 H         1 <0>         0.0888
     52 H18        -2.2311    3.2494    7.4420 H         1 <0>         0.0479
     53 H19        -4.0831    4.7602    7.7611 H         1 <0>         0.0479
     54 H20        -5.0229    3.6570    6.7264 H         1 <0>         0.0870
     55 H21        -6.4896    5.0944    8.1573 H         1 <0>         0.1018
     56 H22        -6.6908    3.3610    8.5124 H         1 <0>         0.0626
     57 H23        -4.7030    3.6058   11.5676 H         1 <0>         0.1036
     58 H24        -5.6239    2.4721   10.5489 H         1 <0>         0.0632
     59 H25        -3.2112    2.1474   10.1846 H         1 <0>         0.0909
     60 H26        -3.0191    3.8737    9.7921 H         1 <0>         0.0484
     61 H27        -5.1269    2.6570   -1.3135 H         1 <0>         0.0574
     62 H28        -5.2259    3.4848    0.2591 H         1 <0>         0.1003
     63 H29        -3.7685    2.5564   -0.1677 H         1 <0>         0.0414
     64 H30        -8.4591   -0.7451   -1.3506 H         1 <0>         0.0484
     65 H31        -8.1901    0.5851   -0.1989 H         1 <0>         0.0511
     66 H32        -8.9477    0.9128   -1.7759 H         1 <0>         0.0989
     67 H33        -6.6011   -3.3470   -4.4132 H         1 <0>         0.1091
     68 H34        -4.9103   -3.0719   -3.9294 H         1 <0>         0.0590
     69 H35        -6.0301   -3.8989   -2.8201 H         1 <0>         0.0608
     70 H36         0.1108    0.9586   -0.0626 H         1 <0>         0.4343
@<TRIPOS>BOND
     1    1    2 1
     2    1   36 1
     3    1   37 1
     4    1   38 1
     5    2    3 1
     6    2   39 1
     7    2   70 1
     8    3    4 1
     9    3   14 1
    10    3    5 1
    11    5    6 1
    12    5   40 1
    13    5   41 1
    14    6    7 1
    15    6   42 1
    16    6   43 1
    17    7   12 ar
    18    7    8 ar
    19    8    9 ar
    20    8   44 1
    21    9   10 ar
    22    9   34 1
    23   10   11 ar
    24   10   32 1
    25   11   12 ar
    26   11   30 1
    27   12   13 1
    28   13   20 2
    29   13   14 1
    30   14   15 2
    31   15   16 1
    32   15   45 1
    33   16   17 2
    34   16   18 1
    35   18   19 2
    36   18   21 1
    37   19   20 1
    38   19   46 1
    39   20   47 1
    40   21   22 1
    41   21   48 1
    42   22   23 1
    43   22   49 1
    44   22   50 1
    45   23   24 1
    46   23   51 1
    47   23   52 1
    48   24   29 1
    49   24   25 1
    50   25   26 1
    51   25   53 1
    52   25   54 1
    53   26   27 1
    54   26   55 1
    55   26   56 1
    56   27   28 1
    57   28   29 1
    58   28   57 1
    59   28   58 1
    60   29   59 1
    61   29   60 1
    62   30   31 1
    63   31   61 1
    64   31   62 1
    65   31   63 1
    66   32   33 1
    67   33   64 1
    68   33   65 1
    69   33   66 1
    70   34   35 1
    71   35   67 1
    72   35   68 1
    73   35   69 1
@<TRIPOS>MOLECULE
ZINC46841152
   71    73     0     0     0
SMALL
USER_CHARGES

@<TRIPOS>ATOM
      1 C1         -3.0540   -2.4086    3.9055 C.3       1 <0>        -0.1292
      2 C2         -2.2099   -3.3121    3.0439 C.ar      1 <0>        -0.0214
      3 C3         -2.3396   -3.2742    1.6682 C.ar      1 <0>        -0.1377
      4 C4         -1.5654   -4.1029    0.8778 C.ar      1 <0>        -0.0087
      5 C5         -0.6611   -4.9693    1.4632 C.ar      1 <0>        -0.6868
      6 C6         -0.5307   -5.0065    2.8389 C.ar      1 <0>        -0.0227
      7 C7         -1.3019   -4.1747    3.6290 C.ar      1 <0>        -0.1409
      8 S1          0.3250   -6.0264    0.4559 S.o2      1 <0>         2.6906
      9 O1          0.8115   -7.0576    1.3040 O.2       1 <0>        -0.9475
     10 O2         -0.4348   -6.2972   -0.7140 O.2       1 <0>        -0.9469
     11 N1          1.6441   -5.1504   -0.0286 N.pl3     1 <0>        -1.0937
     12 C8          2.6146   -4.6789    0.9624 C.3       1 <0>         0.1408
     13 H1          2.1254   -4.5800    1.9315 H         1 <0>         0.1132
     14 C9          3.1668   -3.3195    0.5288 C.3       1 <0>        -0.1162
     15 C10         2.0383   -2.2863    0.5315 C.3       1 <0>        -0.0985
     16 C11         1.5571   -2.0604    1.9662 C.3       1 <0>        -0.1540
     17 C12         2.5535   -0.9670   -0.0473 C.3       1 <0>        -0.1487
     18 C13         3.7452   -5.6695    1.0692 C.2       1 <0>         0.5016
     19 O3          3.7408   -6.6708    0.3848 O.2       1 <0>        -0.4969
     20 N2          4.7612   -5.4427    1.9252 N.am      1 <0>        -0.7380
     21 C14         5.8604   -6.4057    2.0289 C.3       1 <0>         0.1631
     22 C15         6.8586   -5.9207    3.0484 C.ar      1 <0>        -0.1577
     23 C16         7.9144   -5.1047    2.6632 C.ar      1 <0>         0.0529
     24 C17         8.8083   -4.6815    3.6300 C.ar      1 <0>        -0.1974
     25 C18         8.6207   -5.0854    4.9481 C.ar      1 <0>         0.4488
     26 N3          7.6013   -5.8642    5.2756 N.ar      1 <0>        -0.5061
     27 C19         6.7297   -6.2783    4.3752 C.ar      1 <0>         0.1663
     28 N4          9.5117   -4.6680    5.9299 N.pl3     1 <0>        -0.5882
     29 C20        10.5734   -3.6957    5.6254 C.3       1 <0>         0.0772
     30 C21        11.9058   -4.2602    6.1314 C.3       1 <0>         0.0744
     31 H2         12.1799   -5.1331    5.5389 H         1 <0>         0.0728
     32 O4         11.7660   -4.6388    7.5029 O.3       1 <0>        -0.3596
     33 C22        10.8094   -5.6769    7.7289 C.3       1 <0>         0.0791
     34 H3         11.0795   -6.5549    7.1422 H         1 <0>         0.0723
     35 C23         9.4174   -5.1806    7.3060 C.3       1 <0>         0.0635
     36 C24        10.7917   -6.0409    9.2149 C.3       1 <0>        -0.1521
     37 C25        12.9947   -3.1931    6.0032 C.3       1 <0>        -0.1508
     38 H4         -2.5330   -1.4638    4.0607 H         1 <0>         0.0809
     39 H5         -4.0069   -2.2210    3.4107 H         1 <0>         0.0758
     40 H6         -3.2325   -2.8875    4.8682 H         1 <0>         0.0743
     41 H7         -3.0461   -2.5974    1.2108 H         1 <0>         0.1350
     42 H8         -1.6672   -4.0738   -0.1970 H         1 <0>         0.1398
     43 H9          0.1755   -5.6836    3.2963 H         1 <0>         0.1374
     44 H10        -1.1975   -4.2011    4.7036 H         1 <0>         0.1322
     45 H11         1.7743   -4.9495   -0.9686 H         1 <0>         0.4266
     46 H12         3.9475   -3.0066    1.2221 H         1 <0>         0.0803
     47 H13         3.5833   -3.4000   -0.4752 H         1 <0>         0.0841
     48 H14         1.2103   -2.6510   -0.0763 H         1 <0>         0.0796
     49 H15         0.6980   -1.3896    1.9598 H         1 <0>         0.0607
     50 H16         1.2697   -3.0147    2.4075 H         1 <0>         0.0535
     51 H17         2.3608   -1.6159    2.5533 H         1 <0>         0.0555
     52 H18         2.8963   -1.1279   -1.0694 H         1 <0>         0.0580
     53 H19         1.7496   -0.2309   -0.0454 H         1 <0>         0.0600
     54 H20         3.3815   -0.6023    0.5605 H         1 <0>         0.0546
     55 H21         4.7648   -4.6419    2.4725 H         1 <0>         0.4013
     56 H22         5.4670   -7.3742    2.3378 H         1 <0>         0.0963
     57 H23         6.3495   -6.5046    1.0599 H         1 <0>         0.0998
     58 H24         8.0348   -4.8075    1.6319 H         1 <0>         0.1774
     59 H25         9.6408   -4.0466    3.3652 H         1 <0>         0.1818
     60 H26         5.9075   -6.9088    4.6799 H         1 <0>         0.2094
     61 H27        10.6276   -3.5365    4.5484 H         1 <0>         0.1116
     62 H28        10.3610   -2.7512    6.1263 H         1 <0>         0.1067
     63 H29         9.0905   -4.3831    7.9733 H         1 <0>         0.1104
     64 H30         8.7056   -6.0053    7.3425 H         1 <0>         0.0886
     65 H31        10.5198   -5.1629    9.8008 H         1 <0>         0.0741
     66 H32        10.0622   -6.8324    9.3864 H         1 <0>         0.0793
     67 H33        11.7806   -6.3867    9.5160 H         1 <0>         0.0820
     68 H34        12.7208   -2.3213    6.5974 H         1 <0>         0.0734
     69 H35        13.9417   -3.5952    6.3632 H         1 <0>         0.0803
     70 H36        13.0973   -2.9025    4.9577 H         1 <0>         0.0819
     71 H37         7.4900   -6.1338    6.2007 H         1 <0>         0.4403
@<TRIPOS>BOND
     1    1    2 1
     2    1   38 1
     3    1   39 1
     4    1   40 1
     5    2    7 ar
     6    2    3 ar
     7    3    4 ar
     8    3   41 1
     9    4    5 ar
    10    4   42 1
    11    5    6 ar
    12    5    8 1
    13    6    7 ar
    14    6   43 1
    15    7   44 1
    16    8    9 2
    17    8   10 2
    18    8   11 1
    19   11   12 1
    20   11   45 1
    21   12   13 1
    22   12   14 1
    23   12   18 1
    24   14   15 1
    25   14   46 1
    26   14   47 1
    27   15   16 1
    28   15   17 1
    29   15   48 1
    30   16   49 1
    31   16   50 1
    32   16   51 1
    33   17   52 1
    34   17   53 1
    35   17   54 1
    36   18   19 2
    37   18   20 am
    38   20   21 1
    39   20   55 1
    40   21   22 1
    41   21   56 1
    42   21   57 1
    43   22   27 ar
    44   22   23 ar
    45   23   24 ar
    46   23   58 1
    47   24   25 ar
    48   24   59 1
    49   25   26 ar
    50   25   28 1
    51   26   27 ar
    52   26   71 1
    53   27   60 1
    54   28   35 1
    55   28   29 1
    56   29   30 1
    57   29   61 1
    58   29   62 1
    59   30   31 1
    60   30   32 1
    61   30   37 1
    62   32   33 1
    63   33   34 1
    64   33   35 1
    65   33   36 1
    66   35   63 1
    67   35   64 1
    68   36   65 1
    69   36   66 1
    70   36   67 1
    71   37   68 1
    72   37   69 1
    73   37   70 1
@<TRIPOS>MOLECULE
ZINC63383707
   69    73     0     0     0
SMALL
USER_CHARGES

@<TRIPOS>ATOM
      1 C1         -3.6855   -0.3932    1.1843 C.3       1 <0>        -0.1806
      2 C2         -2.3930    0.4175    1.0692 C.3       1 <0>        -0.1199
      3 C3         -1.4597   -0.2516    0.0582 C.3       1 <0>        -0.1005
      4 H1         -1.3457   -1.3057    0.3112 H         1 <0>         0.0888
      5 C4         -0.0919    0.4329    0.0962 C.3       1 <0>        -0.1418
      6 C5         -2.0543   -0.1255   -1.3459 C.3       1 <0>         0.1292
      7 H2         -1.3368   -0.4947   -2.0788 H         1 <0>         0.1212
      8 C6         -3.3210   -0.9376   -1.4298 C.2       1 <0>         0.5247
      9 O1         -4.3709   -0.3967   -1.7054 O.2       1 <0>        -0.5418
     10 N1         -3.2871   -2.2649   -1.1985 N.am      1 <0>        -0.7162
     11 C7         -4.4948   -3.0724   -1.3870 C.3       1 <0>         0.1227
     12 C8         -4.1868   -4.5349   -1.0596 C.3       1 <0>         0.0441
     13 O2         -3.8645   -4.6548    0.3274 O.3       1 <0>        -0.3897
     14 C9         -3.5587   -5.9884    0.7398 C.3       1 <0>         0.0296
     15 N2         -2.3565    1.2808   -1.6238 N.am      1 <0>        -0.6984
     16 C10        -1.4408    2.0590   -2.2340 C.2       1 <0>         0.5027
     17 O3         -0.4053    1.5739   -2.6380 O.2       1 <0>        -0.5136
     18 C11        -1.7037    3.5319   -2.4144 C.3       1 <0>         0.1474
     19 H3         -1.8386    4.0018   -1.4402 H         1 <0>         0.1573
     20 C12        -2.9729    3.7310   -3.2656 C.3       1 <0>        -0.0955
     21 C13        -2.5926    3.4645   -4.7011 C.2       1 <0>         0.0532
     22 C14        -3.1302    2.6527   -5.6058 C.ar      1 <0>        -0.1526
     23 C15        -4.3316    1.8033   -5.5670 C.ar      1 <0>         0.0049
     24 C16        -4.5848    1.0719   -6.6844 C.ar      1 <0>        -0.1590
     25 C17        -3.7739    1.1007   -7.8231 C.ar      1 <0>         0.0595
     26 C18        -2.6558    1.8588   -7.9492 C.ar      1 <0>        -0.2097
     27 C19        -2.2898    2.6772   -6.8411 C.ar      1 <0>         0.3379
     28 N3         -1.2965    3.5031   -6.6982 N.pl3     1 <0>        -0.5734
     29 C20        -1.4106    4.1417   -5.3856 C.3       1 <0>         0.0856
     30 H4         -1.5835    5.2128   -5.4899 H         1 <0>         0.1822
     31 C21        -0.1834    3.8596   -4.5114 C.3       1 <0>         0.1914
     32 H5          0.1350    2.8224   -4.6156 H         1 <0>         0.1349
     33 N4         -0.5694    4.1542   -3.1097 N.am      1 <0>        -0.6019
     34 C22         0.2714    5.0776   -2.6098 C.2       1 <0>         0.5741
     35 O4          0.2651    5.4750   -1.4611 O.2       1 <0>        -0.4861
     36 C23         1.1956    5.5342   -3.6495 C.ar      1 <0>        -0.1538
     37 C24         0.9343    4.7934   -4.8451 C.ar      1 <0>        -0.1098
     38 C25         1.6439    4.9960   -6.0079 C.ar      1 <0>        -0.0906
     39 C26         2.6459    5.9616   -5.9762 C.ar      1 <0>        -0.0820
     40 C27         2.9221    6.6859   -4.8339 C.ar      1 <0>        -0.1104
     41 C28         2.2014    6.5037   -3.6153 C.ar      1 <0>        -0.0177
     42 H6         -4.2437   -0.0645    2.0609 H         1 <0>         0.0576
     43 H7         -4.2905   -0.2413    0.2904 H         1 <0>         0.0715
     44 H8         -3.4432   -1.4512    1.2835 H         1 <0>         0.0613
     45 H9         -2.6266    1.4282    0.7346 H         1 <0>         0.0622
     46 H10        -1.9036    0.4609    2.0422 H         1 <0>         0.0710
     47 H11         0.3753    0.2577    1.0652 H         1 <0>         0.0628
     48 H12         0.5410    0.0241   -0.6915 H         1 <0>         0.0619
     49 H13        -0.2175    1.5046   -0.0581 H         1 <0>         0.0509
     50 H14        -2.4630   -2.6856   -0.9072 H         1 <0>         0.4073
     51 H15        -5.2813   -2.7098   -0.7251 H         1 <0>         0.0831
     52 H16        -4.8264   -2.9939   -2.4224 H         1 <0>         0.0850
     53 H17        -5.0588   -5.1490   -1.2844 H         1 <0>         0.0712
     54 H18        -3.3411   -4.8712   -1.6595 H         1 <0>         0.0579
     55 H19        -4.4177   -6.6327    0.5523 H         1 <0>         0.0457
     56 H20        -2.7000   -6.3548    0.1773 H         1 <0>         0.0439
     57 H21        -3.3252   -5.9949    1.8045 H         1 <0>         0.0906
     58 H22        -3.2156    1.6518   -1.3686 H         1 <0>         0.4121
     59 H23        -3.7455    3.0299   -2.9499 H         1 <0>         0.1303
     60 H24        -3.3335    4.7543   -3.1608 H         1 <0>         0.1441
     61 H25        -4.9748    1.7632   -4.7004 H         1 <0>         0.1719
     62 H26        -5.4573    0.4354   -6.6930 H         1 <0>         0.1561
     63 H27        -4.0563    0.4771   -8.6585 H         1 <0>         0.1591
     64 H28        -2.0660    1.8428   -8.8538 H         1 <0>         0.1705
     65 H29         1.4326    4.4310   -6.9037 H         1 <0>         0.1332
     66 H30         3.2233    6.1490   -6.8695 H         1 <0>         0.1408
     67 H31         3.7115    7.4225   -4.8579 H         1 <0>         0.1411
     68 H32         2.4143    7.0662   -2.7183 H         1 <0>         0.1563
     69 H33        -0.5977    3.6681   -7.3504 H         1 <0>         0.4543
@<TRIPOS>BOND
     1    1    2 1
     2    1   42 1
     3    1   43 1
     4    1   44 1
     5    2    3 1
     6    2   45 1
     7    2   46 1
     8    3    4 1
     9    3    5 1
    10    3    6 1
    11    5   47 1
    12    5   48 1
    13    5   49 1
    14    6    7 1
    15    6    8 1
    16    6   15 1
    17    8    9 2
    18    8   10 am
    19   10   11 1
    20   10   50 1
    21   11   12 1
    22   11   51 1
    23   11   52 1
    24   12   13 1
    25   12   53 1
    26   12   54 1
    27   13   14 1
    28   14   55 1
    29   14   56 1
    30   14   57 1
    31   15   16 am
    32   15   58 1
    33   16   17 2
    34   16   18 1
    35   18   19 1
    36   18   33 1
    37   18   20 1
    38   20   21 1
    39   20   59 1
    40   20   60 1
    41   21   29 1
    42   21   22 2
    43   22   27 ar
    44   22   23 ar
    45   23   24 ar
    46   23   61 1
    47   24   25 ar
    48   24   62 1
    49   25   26 ar
    50   25   63 1
    51   26   27 ar
    52   26   64 1
    53   27   28 2
    54   28   29 1
    55   28   69 1
    56   29   30 1
    57   29   31 1
    58   31   32 1
    59   31   37 1
    60   31   33 1
    61   33   34 am
    62   34   35 2
    63   34   36 1
    64   36   41 ar
    65   36   37 ar
    66   37   38 ar
    67   38   39 ar
    68   38   65 1
    69   39   40 ar
    70   39   66 1
    71   40   41 ar
    72   40   67 1
    73   41   68 1
@<TRIPOS>MOLECULE
ZINC05194064
   45    48     0     0     0
SMALL
USER_CHARGES
2-oxo-N-[5-oxo-1-(p-tolyl)pyrrolidin-3-yl]-chromene-3-carboxamide
@<TRIPOS>ATOM
      1 C1          2.5580    7.5051    0.0493 C.3       1 <0>        -0.1136
      2 C2          2.2071    6.0395    0.0365 C.ar      1 <0>        -0.1087
      3 C3          3.2087    5.0896    0.1183 C.ar      1 <0>        -0.0931
      4 C4          2.8905    3.7457    0.1068 C.ar      1 <0>        -0.1536
      5 C5          1.5630    3.3488    0.0133 C.ar      1 <0>         0.1561
      6 C6          0.5599    4.3052   -0.0736 C.ar      1 <0>        -0.1501
      7 C7          0.8843    5.6475   -0.0567 C.ar      1 <0>        -0.0910
      8 N1          1.2373    1.9880    0.0009 N.am      1 <0>        -0.5577
      9 C8          2.2226    0.9010   -0.0393 C.3       1 <0>         0.0932
     10 C9          1.4553   -0.3670    0.3963 C.3       1 <0>         0.1418
     11 H1          1.5456   -0.5279    1.4706 H         1 <0>         0.1211
     12 C10         0.0024   -0.0042    0.0113 C.3       1 <0>        -0.1672
     13 C11        -0.0182    1.5084    0.0243 C.2       1 <0>         0.5214
     14 O1         -1.0216    2.1893    0.0471 O.2       1 <0>        -0.4999
     15 N2          1.9174   -1.5411   -0.3482 N.am      1 <0>        -0.7214
     16 C12         1.6683   -2.7789    0.1231 C.2       1 <0>         0.5742
     17 O2          1.0599   -2.9213    1.1666 O.2       1 <0>        -0.4913
     18 C13         2.1328   -3.9591   -0.6253 C.2       1 <0>        -0.2566
     19 C14         2.8263   -3.8114   -1.8141 C.2       1 <0>         0.0471
     20 C15         3.2553   -4.9750   -2.5015 C.ar      1 <0>        -0.1736
     21 C16         3.9602   -4.8617   -3.7094 C.ar      1 <0>        -0.0437
     22 C17         4.3695   -5.9863   -4.3657 C.ar      1 <0>        -0.1452
     23 C18         4.0932   -7.2440   -3.8471 C.ar      1 <0>        -0.0450
     24 C19         3.4024   -7.3787   -2.6617 C.ar      1 <0>        -0.1403
     25 C20         2.9746   -6.2482   -1.9740 C.ar      1 <0>         0.1656
     26 O3          2.2975   -6.3830   -0.8136 O.3       1 <0>        -0.2620
     27 C21         1.8742   -5.3125   -0.1211 C.2       1 <0>         0.5197
     28 O4          1.2708   -5.4657    0.9244 O.2       1 <0>        -0.4131
     29 H2          2.7178    7.8494   -0.9724 H         1 <0>         0.0697
     30 H3          1.7419    8.0701    0.4997 H         1 <0>         0.0664
     31 H4          3.4680    7.6558    0.6300 H         1 <0>         0.0659
     32 H5          4.2409    5.3989    0.1910 H         1 <0>         0.1269
     33 H6          3.6732    3.0043    0.1708 H         1 <0>         0.1251
     34 H7         -0.4731    3.9996   -0.1505 H         1 <0>         0.1548
     35 H8          0.1044    6.3919   -0.1205 H         1 <0>         0.1273
     36 H9          3.0381    1.1054    0.6545 H         1 <0>         0.0995
     37 H10         2.6102    0.7786   -1.0506 H         1 <0>         0.0875
     38 H11        -0.6976   -0.4016    0.7463 H         1 <0>         0.1184
     39 H12        -0.2361   -0.3805   -0.9836 H         1 <0>         0.1154
     40 H13         2.4027   -1.4275   -1.1804 H         1 <0>         0.4004
     41 H14         3.0369   -2.8289   -2.2101 H         1 <0>         0.1539
     42 H15         4.1782   -3.8866   -4.1192 H         1 <0>         0.1427
     43 H16         4.9120   -5.8971   -5.2953 H         1 <0>         0.1396
     44 H17         4.4228   -8.1253   -4.3772 H         1 <0>         0.1448
     45 H18         3.1936   -8.3621   -2.2671 H         1 <0>         0.1487
@<TRIPOS>BOND
     1    1    2 1
     2    1   29 1
     3    1   30 1
     4    1   31 1
     5    2    7 ar
     6    2    3 ar
     7    3    4 ar
     8    3   32 1
     9    4    5 ar
    10    4   33 1
    11    5    6 ar
    12    5    8 1
    13    6    7 ar
    14    6   34 1
    15    7   35 1
    16    8   13 am
    17    8    9 1
    18    9   10 1
    19    9   36 1
    20    9   37 1
    21   10   11 1
    22   10   12 1
    23   10   15 1
    24   12   13 1
    25   12   38 1
    26   12   39 1
    27   13   14 2
    28   15   16 am
    29   15   40 1
    30   16   17 2
    31   16   18 1
    32   18   27 1
    33   18   19 2
    34   19   20 1
    35   19   41 1
    36   20   25 ar
    37   20   21 ar
    38   21   22 ar
    39   21   42 1
    40   22   23 ar
    41   22   43 1
    42   23   24 ar
    43   23   44 1
    44   24   25 ar
    45   24   45 1
    46   25   26 1
    47   26   27 1
    48   27   28 2
@<TRIPOS>MOLECULE
ZINC22475609
   40    43     0     0     0
SMALL
USER_CHARGES
3-[1-[(6-chloro-3-pyridyl)sulfonyl]-3,6-dihydro-2H-pyridin-4-yl]-1H-pyrrolo[2,3-b]pyridine
@<TRIPOS>ATOM
      1 C1         -3.2806   -0.8048    3.2557 C.ar      1 <0>        -0.2013
      2 C2         -2.2041   -0.4613    2.4578 C.ar      1 <0>        -0.0276
      3 C3         -2.2188   -0.8702    1.1252 C.ar      1 <0>        -0.1396
      4 C4         -1.2939   -0.7105   -0.0084 C.2       1 <0>        -0.1459
      5 C5         -1.8698   -1.3356   -1.0673 C.2       1 <0>         0.0730
      6 N1         -3.0654   -1.8756   -0.6887 N.pl3     1 <0>        -0.5905
      7 H1         -3.6744   -2.4295   -1.4183 H         1 <0>         0.4483
      8 C6         -3.3118   -1.6094    0.6381 C.ar      1 <0>         0.2944
      9 N2         -4.3176   -1.9106    1.4492 N.ar      1 <0>        -0.5014
     10 C7         -4.3247   -1.5349    2.7106 C.ar      1 <0>         0.1380
     11 C8          0.0021   -0.0041    0.0020 C.2       1 <0>        -0.0326
     12 C9         -0.0157    1.3085    0.0092 C.2       1 <0>        -0.1564
     13 C10         1.2279    2.1533    0.0019 C.3       1 <0>         0.1444
     14 N3          2.3951    1.2957    0.2521 N.pl3     1 <0>        -0.9982
     15 C11         2.4489    0.0037   -0.4535 C.3       1 <0>         0.1179
     16 C12         1.2516   -0.8338    0.0032 C.3       1 <0>        -0.0932
     17 S1          3.6014    1.7631    1.2859 S.o2      1 <0>         2.7006
     18 O1          3.0258    2.7028    2.1831 O.2       1 <0>        -0.9432
     19 O2          4.2368    0.5734    1.7330 O.2       1 <0>        -0.9439
     20 C13         4.7934    2.6427    0.3318 C.ar      1 <0>        -0.7399
     21 C14         5.8531    1.9711   -0.2598 C.ar      1 <0>         0.0395
     22 C15         6.7636    2.7021   -1.0058 C.ar      1 <0>        -0.1747
     23 C16         6.5927    4.0703   -1.1257 C.ar      1 <0>         0.2245
     24 N4          5.5751    4.6762   -0.5441 N.ar      1 <0>        -0.4876
     25 C17         4.6870    4.0103    0.1686 C.ar      1 <0>         0.2222
     26 Cl1         7.7303    4.9996   -2.0509 Cl        1 <0>        -0.0093
     27 H2         -3.3072   -0.5065    4.2934 H         1 <0>         0.1383
     28 H3         -1.3763    0.1069    2.8557 H         1 <0>         0.1333
     29 H4         -1.4452   -1.3983   -2.0583 H         1 <0>         0.1785
     30 H5         -5.1643   -1.8016    3.3355 H         1 <0>         0.1609
     31 H6         -0.9757    1.8455    0.0212 H         1 <0>         0.1239
     32 H7          1.3325    2.6433   -0.9774 H         1 <0>         0.0837
     33 H8          1.1561    2.9184    0.7889 H         1 <0>         0.1076
     34 H9          2.4003    0.1763   -1.5388 H         1 <0>         0.0793
     35 H10         3.3892   -0.5105   -0.2058 H         1 <0>         0.0972
     36 H11         1.4428   -1.2073    1.0201 H         1 <0>         0.0848
     37 H12         1.1273   -1.6848   -0.6826 H         1 <0>         0.0884
     38 H13         5.9638    0.9029   -0.1449 H         1 <0>         0.1637
     39 H14         7.5982    2.2112   -1.4842 H         1 <0>         0.1596
     40 H15         3.8673    4.5407    0.6303 H         1 <0>         0.1834
@<TRIPOS>BOND
     1    1   10 ar
     2    1    2 ar
     3    1   27 1
     4    2    3 ar
     5    2   28 1
     6    3    8 ar
     7    3    4 1
     8    4    5 2
     9    4   11 1
    10    5    6 1
    11    5   29 1
    12    6    7 1
    13    6    8 1
    14    8    9 ar
    15    9   10 ar
    16   10   30 1
    17   11   16 1
    18   11   12 2
    19   12   13 1
    20   12   31 1
    21   13   14 1
    22   13   32 1
    23   13   33 1
    24   14   15 1
    25   14   17 1
    26   15   16 1
    27   15   34 1
    28   15   35 1
    29   16   36 1
    30   16   37 1
    31   17   18 2
    32   17   19 2
    33   17   20 1
    34   20   25 ar
    35   20   21 ar
    36   21   22 ar
    37   21   38 1
    38   22   23 ar
    39   22   39 1
    40   23   24 ar
    41   23   26 1
    42   24   25 ar
    43   25   40 1
@<TRIPOS>MOLECULE
ZINC50554695
   38    41     0     0     0
SMALL
USER_CHARGES

@<TRIPOS>ATOM
      1 C1         -0.0207    1.6757    0.0113 C.2       1 <0>        -0.2720
      2 C2          1.3251    1.9901    0.0001 C.2       1 <0>         0.0388
      3 N1          2.1645    0.9488   -0.0135 N.2       1 <0>        -0.4781
      4 C3          1.6615   -0.2552   -0.0152 C.2       1 <0>        -0.0219
      5 S1          0.0021   -0.0041    0.0020 S.3       1 <0>         0.2690
      6 C4          1.8025    3.3774    0.0025 C.2       1 <0>         0.0382
      7 C5          3.1299    3.6357   -0.0087 C.2       1 <0>        -0.2010
      8 C6          3.5910    4.9757   -0.0064 C.2       1 <0>         0.5625
      9 O1          2.7921    5.8944    0.0058 O.2       1 <0>        -0.5230
     10 N2          4.9139    5.2331   -0.0176 N.am      1 <0>        -0.5251
     11 N3          5.3698    6.5578   -0.0153 N.am      1 <0>        -0.3284
     12 C7          5.2806    7.2938   -1.1529 C.2       1 <0>         0.4034
     13 N4          5.6950    8.5321   -1.1915 N.2       1 <0>        -0.4750
     14 C8          6.2182    9.1115   -0.1145 C.2       1 <0>         0.0971
     15 C9          6.3513    8.4313    1.1062 C.2       1 <0>        -0.2329
     16 C10         5.8823    7.0767    1.1161 C.2       1 <0>         0.5537
     17 O2          5.9503    6.4047    2.1307 O.2       1 <0>        -0.5057
     18 C11         6.9446    9.1948    2.2032 C.2       1 <0>        -0.0515
     19 C12         7.3033   10.4688    1.9385 C.2       1 <0>        -0.1661
     20 S2          6.8775   10.7215    0.2364 S.3       1 <0>         0.1603
     21 C13         7.9259   11.4512    2.8829 C.3       1 <0>        -0.0375
     22 C14         7.7628   10.9182    4.3136 C.3       1 <0>        -0.1157
     23 C15         8.1854    9.4465    4.3409 C.3       1 <0>        -0.1227
     24 C16         7.1579    8.5973    3.5913 C.3       1 <0>        -0.0600
     25 H1         -0.8712    2.3411    0.0268 H         1 <0>         0.2038
     26 H2          2.1910   -1.1965   -0.0253 H         1 <0>         0.2218
     27 H3          1.0939    4.1924    0.0133 H         1 <0>         0.1492
     28 H4          3.8385    2.8208   -0.0195 H         1 <0>         0.1459
     29 H5          5.5504    4.5012   -0.0273 H         1 <0>         0.4326
     30 H6          4.8600    6.8474   -2.0418 H         1 <0>         0.2163
     31 H7          8.9851   11.5625    2.6511 H         1 <0>         0.0876
     32 H8          7.4263   12.4156    2.7913 H         1 <0>         0.0858
     33 H9          8.3939   11.4924    4.9918 H         1 <0>         0.0771
     34 H10         6.7201   11.0049    4.6193 H         1 <0>         0.0697
     35 H11         9.1600    9.3406    3.8643 H         1 <0>         0.0667
     36 H12         8.2503    9.1074    5.3748 H         1 <0>         0.0722
     37 H13         6.2148    8.5971    4.1378 H         1 <0>         0.0793
     38 H14         7.5277    7.5763    3.4967 H         1 <0>         0.0854
@<TRIPOS>BOND
     1    1    5 1
     2    1    2 2
     3    1   25 1
     4    2    3 1
     5    2    6 1
     6    3    4 2
     7    4    5 1
     8    4   26 1
     9    6    7 2
    10    6   27 1
    11    7    8 1
    12    7   28 1
    13    8    9 2
    14    8   10 am
    15   10   11 1
    16   10   29 1
    17   11   16 am
    18   11   12 1
    19   12   13 2
    20   12   30 1
    21   13   14 1
    22   14   20 1
    23   14   15 2
    24   15   16 1
    25   15   18 1
    26   16   17 2
    27   18   24 1
    28   18   19 2
    29   19   20 1
    30   19   21 1
    31   21   22 1
    32   21   31 1
    33   21   32 1
    34   22   23 1
    35   22   33 1
    36   22   34 1
    37   23   24 1
    38   23   35 1
    39   23   36 1
    40   24   37 1
    41   24   38 1
@<TRIPOS>MOLECULE
ZINC62550461
   48    50     0     0     0
SMALL
USER_CHARGES

@<TRIPOS>ATOM
      1 C1         -1.3854   -7.4672    4.4443 C.3       1 <0>        -0.1128
      2 C2         -1.1824   -6.6655    3.1845 C.ar      1 <0>        -0.1067
      3 C3         -0.0392   -6.8476    2.4276 C.ar      1 <0>        -0.0951
      4 C4          0.1456   -6.1144    1.2729 C.ar      1 <0>        -0.1544
      5 C5         -0.8158   -5.1934    0.8719 C.ar      1 <0>         0.1522
      6 C6         -1.9596   -5.0090    1.6324 C.ar      1 <0>        -0.1139
      7 C7         -2.1411   -5.7548    2.7854 C.ar      1 <0>        -0.0740
      8 C8         -3.0169   -4.0131    1.2348 C.3       1 <0>         0.1528
      9 H1         -2.8875   -3.0999    1.8158 H         1 <0>         0.0703
     10 C9         -2.9091   -3.6833   -0.2538 C.3       1 <0>        -0.1706
     11 C10        -1.4598   -3.2931   -0.5719 C.3       1 <0>         0.0904
     12 N1         -0.6112   -4.4626   -0.3057 N.am      1 <0>        -0.5434
     13 C11         0.3477   -4.8265   -1.1800 C.2       1 <0>         0.5574
     14 O1          1.0687   -5.7733   -0.9321 O.2       1 <0>        -0.4983
     15 C12         0.5228   -4.0743   -2.4404 C.ar      1 <0>        -0.0737
     16 C13         0.5079   -2.6785   -2.4315 C.ar      1 <0>        -0.1143
     17 C14         0.6724   -1.9826   -3.6113 C.ar      1 <0>        -0.0233
     18 C15         0.8514   -2.6650   -4.8015 C.ar      1 <0>        -0.6593
     19 C16         0.8672   -4.0485   -4.8172 C.ar      1 <0>        -0.0207
     20 C17         0.7096   -4.7565   -3.6438 C.ar      1 <0>        -0.0840
     21 S1          1.0595   -1.7684   -6.3039 S.o2      1 <0>         2.6902
     22 O2          0.6637   -2.6392   -7.3547 O.2       1 <0>        -0.9468
     23 O3          0.4611   -0.4953   -6.1033 O.2       1 <0>        -0.9487
     24 N2          2.6830   -1.5034   -6.4950 N.pl3     1 <0>        -1.0030
     25 C18         3.5043   -2.4783   -7.2170 C.3       1 <0>         0.0899
     26 C19         3.2979   -0.2941   -5.9421 C.3       1 <0>         0.0824
     27 O4         -4.3080   -4.5636    1.5029 O.3       1 <0>        -0.5559
     28 H2         -1.9057   -8.3947    4.2049 H         1 <0>         0.0700
     29 H3         -0.4170   -7.6981    4.8881 H         1 <0>         0.0664
     30 H4         -1.9804   -6.8889    5.1511 H         1 <0>         0.0659
     31 H5          0.7080   -7.5621    2.7400 H         1 <0>         0.1273
     32 H6          1.0376   -6.2560    0.6806 H         1 <0>         0.1751
     33 H7         -3.0344   -5.6205    3.3773 H         1 <0>         0.1311
     34 H8         -3.1897   -4.5568   -0.8425 H         1 <0>         0.0847
     35 H9         -3.5720   -2.8517   -0.4925 H         1 <0>         0.0929
     36 H10        -1.3762   -3.0072   -1.6205 H         1 <0>         0.1063
     37 H11        -1.1533   -2.4622    0.0635 H         1 <0>         0.0865
     38 H12         0.3676   -2.1446   -1.5033 H         1 <0>         0.1429
     39 H13         0.6610   -0.9026   -3.6059 H         1 <0>         0.1499
     40 H14         1.0070   -4.5751   -5.7497 H         1 <0>         0.1505
     41 H15         0.7266   -5.8363   -3.6567 H         1 <0>         0.1452
     42 H16         3.5233   -2.2235   -8.2767 H         1 <0>         0.0649
     43 H17         4.5197   -2.4619   -6.8212 H         1 <0>         0.0770
     44 H18         3.0810   -3.4747   -7.0904 H         1 <0>         0.0729
     45 H19         2.5361    0.3057   -5.4441 H         1 <0>         0.0863
     46 H20         4.0675   -0.5741   -5.2228 H         1 <0>         0.0644
     47 H21         3.7475    0.2859   -6.7480 H         1 <0>         0.0707
     48 H22        -5.0414   -3.9773    1.2717 H         1 <0>         0.3825
@<TRIPOS>BOND
     1    1    2 1
     2    1   28 1
     3    1   29 1
     4    1   30 1
     5    2    7 ar
     6    2    3 ar
     7    3    4 ar
     8    3   31 1
     9    4    5 ar
    10    4   32 1
    11    5   12 1
    12    5    6 ar
    13    6    7 ar
    14    6    8 1
    15    7   33 1
    16    8    9 1
    17    8   10 1
    18    8   27 1
    19   10   11 1
    20   10   34 1
    21   10   35 1
    22   11   12 1
    23   11   36 1
    24   11   37 1
    25   12   13 am
    26   13   14 2
    27   13   15 1
    28   15   20 ar
    29   15   16 ar
    30   16   17 ar
    31   16   38 1
    32   17   18 ar
    33   17   39 1
    34   18   19 ar
    35   18   21 1
    36   19   20 ar
    37   19   40 1
    38   20   41 1
    39   21   22 2
    40   21   23 2
    41   21   24 1
    42   24   25 1
    43   24   26 1
    44   25   42 1
    45   25   43 1
    46   25   44 1
    47   26   45 1
    48   26   46 1
    49   26   47 1
    50   27   48 1
@<TRIPOS>MOLECULE
ZINC65395810
   40    42     0     0     0
SMALL
USER_CHARGES

@<TRIPOS>ATOM
      1 C1         -0.0184    1.5028    0.0103 C.3       1 <0>        -0.1269
      2 C2          0.0021   -0.0041    0.0020 C.ar      1 <0>        -0.0547
      3 C3          0.0057   -0.6894   -1.1996 C.ar      1 <0>        -0.0295
      4 C4          0.0245   -2.0729   -1.2066 C.ar      1 <0>        -0.0820
      5 C5          0.0390   -2.7701   -0.0132 C.ar      1 <0>        -0.0751
      6 C6          0.0354   -2.0859    1.1877 C.ar      1 <0>        -0.0575
      7 C7          0.0229   -0.7024    1.1960 C.ar      1 <0>        -0.0258
      8 Cl1         0.0261    0.1570    2.7044 Cl        1 <0>        -0.0538
      9 C8          0.0584   -4.2770   -0.0215 C.3       1 <0>         0.1285
     10 H1          0.4200   -4.6461   -0.9813 H         1 <0>         0.0966
     11 C9         -1.3499   -4.8343    0.2728 C.3       1 <0>        -0.1229
     12 H2         -1.9136   -5.0506   -0.6346 H         1 <0>         0.1503
     13 C10        -1.1050   -6.0948    1.1452 C.3       1 <0>        -0.1176
     14 H3         -1.5446   -6.9965    0.7188 H         1 <0>         0.1548
     15 C11         0.4289   -6.1894    1.2823 C.3       1 <0>         0.0878
     16 H4          0.8374   -6.8575    0.5242 H         1 <0>         0.1149
     17 N1          0.9082   -4.7896    1.0834 N.3       1 <0>        -0.6377
     18 C12         0.8042   -6.6690    2.6607 C.2       1 <0>         0.4642
     19 O1          1.1611   -5.8763    3.4999 O.2       1 <0>        -0.4726
     20 O2          0.7420   -7.9769    2.9562 O.3       1 <0>        -0.3469
     21 C13         1.1122   -8.3607    4.2820 C.3       1 <0>         0.0386
     22 C14        -1.7159   -5.7219    2.4772 C.2       1 <0>         0.5371
     23 O3         -1.7433   -6.4325    3.4590 O.2       1 <0>        -0.4678
     24 N2         -2.2208   -4.4849    2.4034 N.am      1 <0>        -0.5700
     25 C15        -2.0769   -3.8854    1.1989 C.2       1 <0>         0.5384
     26 O4         -2.4606   -2.7742    0.9031 O.2       1 <0>        -0.4473
     27 C16        -2.8845   -3.8313    3.5342 C.3       1 <0>         0.0676
     28 Cl2        -0.0137    0.1862   -2.6985 Cl        1 <0>        -0.0536
     29 H5          1.0042    1.8801    0.0026 H         1 <0>         0.0822
     30 H6         -0.5455    1.8639   -0.8728 H         1 <0>         0.0791
     31 H7         -0.5286    1.8543    0.9071 H         1 <0>         0.0786
     32 H8          0.0273   -2.6080   -2.1446 H         1 <0>         0.1401
     33 H9          0.0464   -2.6313    2.1199 H         1 <0>         0.1408
     34 H10         1.8835   -4.7775    0.8251 H         1 <0>         0.3642
     35 H11         2.1447   -8.0666    4.4705 H         1 <0>         0.0591
     36 H12         0.4570   -7.8669    4.9996 H         1 <0>         0.0642
     37 H13         1.0173   -9.4415    4.3873 H         1 <0>         0.1032
     38 H14        -2.8870   -4.5037    4.3921 H         1 <0>         0.0939
     39 H15        -2.3492   -2.9171    3.7906 H         1 <0>         0.0788
     40 H16        -3.9110   -3.5869    3.2611 H         1 <0>         0.0789
@<TRIPOS>BOND
     1    1    2 1
     2    1   29 1
     3    1   30 1
     4    1   31 1
     5    2    7 ar
     6    2    3 ar
     7    3    4 ar
     8    3   28 1
     9    4    5 ar
    10    4   32 1
    11    5    6 ar
    12    5    9 1
    13    6    7 ar
    14    6   33 1
    15    7    8 1
    16    9   10 1
    17    9   17 1
    18    9   11 1
    19   11   12 1
    20   11   25 1
    21   11   13 1
    22   13   14 1
    23   13   15 1
    24   13   22 1
    25   15   16 1
    26   15   17 1
    27   15   18 1
    28   17   34 1
    29   18   19 2
    30   18   20 1
    31   20   21 1
    32   21   35 1
    33   21   36 1
    34   21   37 1
    35   22   23 2
    36   22   24 am
    37   24   25 am
    38   24   27 1
    39   25   26 2
    40   27   38 1
    41   27   39 1
    42   27   40 1
@<TRIPOS>MOLECULE
ZINC09712395
   58    61     0     0     0
SMALL
USER_CHARGES
N-[3-(4,5-dihydro-3H-pyrrol-2-ylsulfamoyl)phenyl]-4-[(3,5-dimethylisoxazol-4-yl)methoxy]benzamide
@<TRIPOS>ATOM
      1 C1         -7.3215   -4.0416   -1.8202 C.3       1 <0>        -0.0802
      2 C2         -7.3152   -4.4914   -0.3819 C.2       1 <0>         0.0414
      3 C3         -6.4995   -3.9906    0.6586 C.2       1 <0>        -0.2275
      4 C4         -6.8748   -4.7094    1.7436 C.2       1 <0>         0.0091
      5 O1         -7.8295   -5.5534    1.3280 O.3       1 <0>         0.1045
      6 N1         -8.0577   -5.4202    0.1480 N.2       1 <0>        -0.3584
      7 C5         -6.3270   -4.5847    3.1420 C.3       1 <0>        -0.0824
      8 C6         -5.4582   -2.9041    0.5801 C.3       1 <0>         0.1427
      9 O2         -4.1888   -3.4824    0.2699 O.3       1 <0>        -0.2998
     10 C7         -3.1350   -2.6341    0.1621 C.ar      1 <0>         0.1757
     11 C8         -1.8723   -3.1318   -0.1377 C.ar      1 <0>        -0.1574
     12 C9         -0.8005   -2.2744   -0.2480 C.ar      1 <0>        -0.0092
     13 C10        -0.9835   -0.9021   -0.0574 C.ar      1 <0>        -0.1949
     14 C11        -2.2534   -0.4064    0.2500 C.ar      1 <0>        -0.0376
     15 C12        -3.3212   -1.2698    0.3523 C.ar      1 <0>        -0.2186
     16 C13         0.1623    0.0204   -0.1747 C.2       1 <0>         0.5663
     17 O3          1.2675   -0.4132   -0.4373 O.2       1 <0>        -0.5143
     18 N2         -0.0162    1.3436    0.0094 N.am      1 <0>        -0.6768
     19 C14         1.0857    2.2047    0.0081 C.ar      1 <0>         0.1549
     20 C15         0.9581    3.4977   -0.4834 C.ar      1 <0>        -0.0706
     21 C16         2.0480    4.3456   -0.4829 C.ar      1 <0>        -0.0970
     22 C17         3.2656    3.9089    0.0067 C.ar      1 <0>        -0.0217
     23 C18         3.3958    2.6227    0.4970 C.ar      1 <0>        -0.6733
     24 C19         2.3084    1.7710    0.5034 C.ar      1 <0>        -0.0573
     25 S1          4.9489    2.0718    1.1207 S.o2      1 <0>         2.6381
     26 O4          4.9484    0.6545    1.0175 O.2       1 <0>        -0.9089
     27 O5          5.9432    2.8800    0.5061 O.2       1 <0>        -0.8798
     28 N3          4.9818    2.4286    2.7374 N.pl3     1 <0>        -1.0070
     29 C20         4.1063    1.8130    3.5927 C.cat     1 <0>         0.5422
     30 C21         2.4313    0.4569    4.3674 C.3       1 <0>         0.0622
     31 C22         2.6767    1.4773    5.5032 C.3       1 <0>        -0.1340
     32 C23         4.0514    2.0573    5.0845 C.3       1 <0>        -0.1262
     33 H1         -6.6072   -4.6360   -2.3899 H         1 <0>         0.0852
     34 H2         -8.3195   -4.1742   -2.2380 H         1 <0>         0.0823
     35 H3         -7.0424   -2.9893   -1.8730 H         1 <0>         0.0797
     36 H4         -6.9117   -3.8513    3.6972 H         1 <0>         0.0944
     37 H5         -6.3862   -5.5510    3.6428 H         1 <0>         0.0921
     38 H6         -5.2869   -4.2618    3.0973 H         1 <0>         0.0919
     39 H7         -5.3980   -2.3885    1.5386 H         1 <0>         0.0818
     40 H8         -5.7333   -2.1927   -0.1985 H         1 <0>         0.0830
     41 H9         -1.7317   -4.1925   -0.2848 H         1 <0>         0.1451
     42 H10         0.1801   -2.6618   -0.4817 H         1 <0>         0.1467
     43 H11        -2.3980    0.6529    0.4027 H         1 <0>         0.1285
     44 H12        -4.3039   -0.8870    0.5852 H         1 <0>         0.1403
     45 H13        -0.9094    1.6990    0.1389 H         1 <0>         0.4190
     46 H14         0.0074    3.8395   -0.8652 H         1 <0>         0.1502
     47 H15         1.9494    5.3509   -0.8649 H         1 <0>         0.1546
     48 H16         4.1163    4.5742    0.0063 H         1 <0>         0.1550
     49 H17         2.4098    0.7678    0.8903 H         1 <0>         0.1413
     50 H18         5.6209    3.0735    3.0789 H         1 <0>         0.4680
     51 H19         1.3738    0.4302    4.1048 H         1 <0>         0.1297
     52 H20         2.7722   -0.5336    4.6686 H         1 <0>         0.1327
     53 H21         1.9065    2.2486    5.5113 H         1 <0>         0.1118
     54 H22         2.7419    0.9797    6.4708 H         1 <0>         0.1324
     55 H23         4.8615    1.5303    5.5885 H         1 <0>         0.1563
     56 H24         4.0962    3.1250    5.2992 H         1 <0>         0.1478
     57 N4          3.2231    0.9407    3.2165 N.pl3     1 <0>        -0.6047
     58 H25         3.0914    0.6275    2.2475 H         1 <0>         0.4504
@<TRIPOS>BOND
     1    1    2 1
     2    1   33 1
     3    1   34 1
     4    1   35 1
     5    2    6 2
     6    2    3 1
     7    3    4 2
     8    3    8 1
     9    4    5 1
    10    4    7 1
    11    5    6 1
    12    7   36 1
    13    7   37 1
    14    7   38 1
    15    8    9 1
    16    8   39 1
    17    8   40 1
    18    9   10 1
    19   10   15 ar
    20   10   11 ar
    21   11   12 ar
    22   11   41 1
    23   12   13 ar
    24   12   42 1
    25   13   14 ar
    26   13   16 1
    27   14   15 ar
    28   14   43 1
    29   15   44 1
    30   16   17 2
    31   16   18 am
    32   18   19 1
    33   18   45 1
    34   19   24 ar
    35   19   20 ar
    36   20   21 ar
    37   20   46 1
    38   21   22 ar
    39   21   47 1
    40   22   23 ar
    41   22   48 1
    42   23   24 ar
    43   23   25 1
    44   24   49 1
    45   25   26 2
    46   25   27 2
    47   25   28 1
    48   28   29 1
    49   28   50 1
    50   29   32 1
    51   29   57 2
    52   30   31 1
    53   30   51 1
    54   30   52 1
    55   30   57 1
    56   31   32 1
    57   31   53 1
    58   31   54 1
    59   32   55 1
    60   32   56 1
    61   57   58 1
@<TRIPOS>MOLECULE
ZINC23133306
   56    58     0     0     0
SMALL
USER_CHARGES
N-[(2S)-2-dimethylamino-2-(3-thienyl)ethyl]-4-[[(3S)-1,1-dioxothiolan-3-yl]sulfamoyl]benzamide
@<TRIPOS>ATOM
      1 C1          5.2121   11.6140   -2.6207 C.3       1 <0>        -0.0469
      2 N1          5.4318   10.1826   -2.8676 N.4       1 <0>        -0.3972
      3 C2          6.5562    9.6771   -2.0688 C.3       1 <0>        -0.0573
      4 C3          4.2104    9.4097   -2.6055 C.3       1 <0>         0.0855
      5 H1          3.9073    9.6060   -1.5665 H         1 <0>         0.1461
      6 C4          4.4922    7.9215   -2.8221 C.3       1 <0>         0.1082
      7 N2          3.2980    7.1439   -2.4827 N.am      1 <0>        -0.7333
      8 C5          3.2769    5.8134   -2.6967 C.2       1 <0>         0.5666
      9 O1          4.2488    5.2587   -3.1714 O.2       1 <0>        -0.5159
     10 C6          2.0717    5.0285   -2.3541 C.ar      1 <0>        -0.0844
     11 C7          2.0466    3.6505   -2.5745 C.ar      1 <0>        -0.0754
     12 C8          0.9190    2.9240   -2.2522 C.ar      1 <0>        -0.0192
     13 C9         -0.1854    3.5584   -1.7116 C.ar      1 <0>        -0.6598
     14 C10        -0.1689    4.9249   -1.4955 C.ar      1 <0>        -0.0315
     15 C11         0.9542    5.6623   -1.8085 C.ar      1 <0>        -0.1062
     16 S1         -1.6217    2.6230   -1.3034 S.o2      1 <0>         2.6854
     17 O2         -1.5885    1.4544   -2.1112 O.2       1 <0>        -0.9416
     18 O3         -2.7154    3.5301   -1.3204 O.2       1 <0>        -0.9420
     19 N3         -1.4487    2.1195    0.2647 N.pl3     1 <0>        -1.1110
     20 C12        -1.4176    3.1025    1.3505 C.3       1 <0>         0.1506
     21 H2         -1.0917    4.0471    0.8907 H         1 <0>         0.0974
     22 C13        -2.8193    3.2381    1.9681 C.3       1 <0>        -0.1500
     23 C14        -2.7347    4.0175    3.3026 C.3       1 <0>        -0.5803
     24 S2         -1.0317    3.6354    3.8870 S.o2      1 <0>         2.3852
     25 O4         -1.1124    2.8080    5.0395 O.2       1 <0>        -0.9250
     26 O5         -0.2802    4.8402    3.9416 O.2       1 <0>        -0.9321
     27 C15        -0.4419    2.6249    2.4637 C.3       1 <0>        -0.5993
     28 C16         3.1213    9.8568   -3.5462 C.2       1 <0>        -0.1591
     29 C17         1.8182    9.9813   -3.1022 C.2       1 <0>        -0.1688
     30 C18         0.8635   10.3912   -3.9728 C.2       1 <0>        -0.1433
     31 S3          1.8016   10.6026   -5.4770 S.3       1 <0>         0.1435
     32 C19         3.4040   10.1377   -4.8418 C.2       1 <0>        -0.1987
     33 H3          4.3665   11.9656   -3.2301 H         1 <0>         0.1248
     34 H4          6.1180   12.1761   -2.8916 H         1 <0>         0.1298
     35 H5          4.9873   11.7721   -1.5556 H         1 <0>         0.1221
     36 H6          6.6982    8.6055   -2.2726 H         1 <0>         0.1289
     37 H7          6.3408    9.8216   -0.9998 H         1 <0>         0.1244
     38 H8          7.4715   10.2256   -2.3358 H         1 <0>         0.1324
     39 H9          4.7556    7.7478   -3.8759 H         1 <0>         0.0944
     40 H10         5.3281    7.6092   -2.1789 H         1 <0>         0.0942
     41 H11         2.4185    7.6459   -2.0532 H         1 <0>         0.4269
     42 H12         2.9081    3.1541   -2.9961 H         1 <0>         0.1504
     43 H13         0.8984    1.8576   -2.4219 H         1 <0>         0.1539
     44 H14        -1.0358    5.4147   -1.0771 H         1 <0>         0.1510
     45 H15         0.9673    6.7283   -1.6355 H         1 <0>         0.1332
     46 H16        -1.1943    1.0686    0.4668 H         1 <0>         0.4524
     47 H17        -3.4756    3.7811    1.2721 H         1 <0>         0.1126
     48 H18        -3.2345    2.2374    2.1584 H         1 <0>         0.1025
     49 H19        -2.8881    5.0898    3.1113 H         1 <0>         0.1456
     50 H20        -3.5121    3.6529    3.9901 H         1 <0>         0.1518
     51 H21        -0.5576    1.5412    2.6125 H         1 <0>         0.1561
     52 H22         0.5931    2.8453    2.1634 H         1 <0>         0.1492
     53 H23         1.5653    9.7592   -2.0760 H         1 <0>         0.1439
     54 H24        -0.1918   10.5450   -3.8021 H         1 <0>         0.1998
     55 H25         4.3525   10.0923   -5.3563 H         1 <0>         0.1883
     56 H26         5.6890   10.0583   -3.9299 H         1 <0>         0.4413
@<TRIPOS>BOND
     1    1    2 1
     2    1   33 1
     3    1   34 1
     4    1   35 1
     5    2    3 1
     6    2    4 1
     7    2   56 1
     8    3   36 1
     9    3   37 1
    10    3   38 1
    11    4    5 1
    12    4    6 1
    13    4   28 1
    14    6    7 1
    15    6   39 1
    16    6   40 1
    17    7    8 am
    18    7   41 1
    19    8    9 2
    20    8   10 1
    21   10   15 ar
    22   10   11 ar
    23   11   12 ar
    24   11   42 1
    25   12   13 ar
    26   12   43 1
    27   13   14 ar
    28   13   16 1
    29   14   15 ar
    30   14   44 1
    31   15   45 1
    32   16   17 2
    33   16   18 2
    34   16   19 1
    35   19   20 1
    36   19   46 1
    37   20   21 1
    38   20   27 1
    39   20   22 1
    40   22   23 1
    41   22   47 1
    42   22   48 1
    43   23   24 1
    44   23   49 1
    45   23   50 1
    46   24   25 2
    47   24   26 2
    48   24   27 1
    49   27   51 1
    50   27   52 1
    51   28   32 2
    52   28   29 1
    53   29   30 2
    54   29   53 1
    55   30   31 1
    56   30   54 1
    57   31   32 1
    58   32   55 1
@<TRIPOS>MOLECULE
ZINC34799065
   68    70     0     0     0
SMALL
USER_CHARGES

@<TRIPOS>ATOM
      1 C1         -0.0155   -0.0620   -0.0362 C.3       1 <0>        -0.2649
      2 C2          0.9034   -1.1446    0.5335 C.3       1 <0>         0.1840
      3 H1          1.7089   -1.3461   -0.1727 H         1 <0>         0.1262
      4 C3          1.4872   -0.6717    1.8398 C.2       1 <0>         0.3795
      5 N1          1.2843   -1.3911    2.9014 N.2       1 <0>        -0.5004
      6 C4          1.7788   -1.0284    4.1114 C.ar      1 <0>         0.1610
      7 C5          1.5614   -1.8019    5.2535 C.ar      1 <0>        -0.1096
      8 C6          2.0825   -1.3959    6.4613 C.ar      1 <0>        -0.0752
      9 C7          2.8229   -0.2249    6.5593 C.ar      1 <0>        -0.1383
     10 C8          3.0509    0.5550    5.4468 C.ar      1 <0>        -0.0416
     11 C9          2.5323    0.1618    4.2148 C.ar      1 <0>        -0.1907
     12 C10         2.7435    0.9532    2.9936 C.2       1 <0>         0.5527
     13 O1          3.3833    1.9886    3.0138 O.2       1 <0>        -0.4744
     14 N2          2.2034    0.4828    1.8452 N.am      1 <0>        -0.5470
     15 C11         2.3879    1.2283    0.5976 C.3       1 <0>         0.0818
     16 C12         1.4055    2.4005    0.5538 C.3       1 <0>         0.0234
     17 O2          1.6756    3.2890    1.6399 O.3       1 <0>        -0.3638
     18 C13         0.8092    4.4243    1.6913 C.3       1 <0>         0.0271
     19 N3          0.1330   -2.3703    0.7582 N.am      1 <0>        -0.6004
     20 C14         0.5866   -3.6371    0.1789 C.3       1 <0>         0.1179
     21 C15         1.5165   -4.3454    1.1661 C.3       1 <0>        -0.1326
     22 C16         1.9903   -5.6684    0.5611 C.3       1 <0>        -0.1187
     23 C17         2.9201   -6.3767    1.5483 C.3       1 <0>        -0.1170
     24 C18         3.3939   -7.6997    0.9433 C.3       1 <0>        -0.1524
     25 C19         4.3238   -8.4080    1.9305 C.3       1 <0>        -0.0105
     26 N4          4.7786   -9.6783    1.3496 N.4       1 <0>        -0.6385
     27 C20        -0.9930   -2.3324    1.4978 C.2       1 <0>         0.5891
     28 O3         -1.8672   -3.1573    1.3166 O.2       1 <0>        -0.5183
     29 C21        -1.1649   -1.2876    2.5296 C.ar      1 <0>        -0.1046
     30 C22        -0.5270   -0.0539    2.3909 C.ar      1 <0>        -0.1596
     31 C23        -0.6920    0.9169    3.3571 C.ar      1 <0>        -0.1354
     32 C24        -1.4872    0.6696    4.4620 C.ar      1 <0>        -0.0880
     33 C25        -2.1220   -0.5514    4.6058 C.ar      1 <0>        -0.1252
     34 C26        -1.9704   -1.5286    3.6438 C.ar      1 <0>        -0.0609
     35 H2          0.5757    0.8157   -0.2975 H         1 <0>         0.1058
     36 H3         -0.5154   -0.4417   -0.9273 H         1 <0>         0.0966
     37 H4         -0.7612    0.2113    0.7102 H         1 <0>         0.1214
     38 H5          0.9870   -2.7142    5.1897 H         1 <0>         0.1312
     39 H6          1.9132   -1.9951    7.3437 H         1 <0>         0.1309
     40 H7          3.2231    0.0770    7.5159 H         1 <0>         0.1321
     41 H8          3.6271    1.4647    5.5291 H         1 <0>         0.1362
     42 H9          3.4086    1.6076    0.5485 H         1 <0>         0.1108
     43 H10         2.2043    0.5685   -0.2504 H         1 <0>         0.1138
     44 H11         1.5191    2.9346   -0.3895 H         1 <0>         0.0750
     45 H12         0.3862    2.0236    0.6376 H         1 <0>         0.0626
     46 H13         1.0789    5.0489    2.5429 H         1 <0>         0.0898
     47 H14         0.9103    5.0004    0.7716 H         1 <0>         0.0450
     48 H15        -0.2225    4.0894    1.7986 H         1 <0>         0.0400
     49 H16        -0.2753   -4.2716   -0.0275 H         1 <0>         0.0926
     50 H17         1.1236   -3.4407   -0.7491 H         1 <0>         0.0779
     51 H18         2.3785   -3.7109    1.3724 H         1 <0>         0.0660
     52 H19         0.9795   -4.5419    2.0941 H         1 <0>         0.0713
     53 H20         1.1283   -6.3029    0.3547 H         1 <0>         0.0693
     54 H21         2.5273   -5.4720   -0.3669 H         1 <0>         0.0668
     55 H22         3.7821   -5.7422    1.7547 H         1 <0>         0.0731
     56 H23         2.3831   -6.5731    2.4763 H         1 <0>         0.0748
     57 H24         2.5319   -8.3342    0.7369 H         1 <0>         0.0883
     58 H25         3.9309   -7.5033    0.0153 H         1 <0>         0.0873
     59 H26         5.1857   -7.7735    2.1369 H         1 <0>         0.1330
     60 H27         3.7868   -8.6044    2.8585 H         1 <0>         0.1336
     61 H28         5.3919  -10.1453    2.0007 H         1 <0>         0.4384
     62 H29         3.9807  -10.2656    1.1586 H         1 <0>         0.4356
     63 H30         0.0946    0.1401    1.5293 H         1 <0>         0.1937
     64 H31        -0.1990    1.8719    3.2510 H         1 <0>         0.1189
     65 H32        -1.6128    1.4328    5.2157 H         1 <0>         0.1222
     66 H33        -2.7411   -0.7383    5.4707 H         1 <0>         0.1272
     67 H34        -2.4703   -2.4795    3.7547 H         1 <0>         0.1288
     68 H35         5.2757   -9.4964    0.4906 H         1 <0>         0.4351
@<TRIPOS>BOND
     1    1    2 1
     2    1   35 1
     3    1   36 1
     4    1   37 1
     5    2    3 1
     6    2    4 1
     7    2   19 1
     8    4   14 1
     9    4    5 2
    10    5    6 1
    11    6   11 ar
    12    6    7 ar
    13    7    8 ar
    14    7   38 1
    15    8    9 ar
    16    8   39 1
    17    9   10 ar
    18    9   40 1
    19   10   11 ar
    20   10   41 1
    21   11   12 1
    22   12   13 2
    23   12   14 am
    24   14   15 1
    25   15   16 1
    26   15   42 1
    27   15   43 1
    28   16   17 1
    29   16   44 1
    30   16   45 1
    31   17   18 1
    32   18   46 1
    33   18   47 1
    34   18   48 1
    35   19   20 1
    36   19   27 am
    37   20   21 1
    38   20   49 1
    39   20   50 1
    40   21   22 1
    41   21   51 1
    42   21   52 1
    43   22   23 1
    44   22   53 1
    45   22   54 1
    46   23   24 1
    47   23   55 1
    48   23   56 1
    49   24   25 1
    50   24   57 1
    51   24   58 1
    52   25   26 1
    53   25   59 1
    54   25   60 1
    55   26   61 1
    56   26   62 1
    57   26   68 1
    58   27   28 2
    59   27   29 1
    60   29   34 ar
    61   29   30 ar
    62   30   31 ar
    63   30   63 1
    64   31   32 ar
    65   31   64 1
    66   32   33 ar
    67   32   65 1
    68   33   34 ar
    69   33   66 1
    70   34   67 1
@<TRIPOS>MOLECULE
ZINC39664395
   78    82     0     0     0
SMALL
USER_CHARGES

@<TRIPOS>ATOM
      1 C1          5.3066    2.0790    1.0147 C.3       1 <0>        -0.1398
      2 C2          4.1268    1.1790    1.3877 C.3       1 <0>        -0.1159
      3 S1          4.3586    0.5450    3.0714 S.3       1 <0>        -0.0302
      4 C3          2.9375   -0.4594    3.3480 C.ar      1 <0>         0.1661
      5 C4          2.7763   -1.1196    4.5793 C.ar      1 <0>        -0.1814
      6 C5          1.6392   -1.9112    4.7753 C.ar      1 <0>        -0.0253
      7 C6          0.7206   -2.0093    3.7450 C.ar      1 <0>        -0.1856
      8 C7          0.9484   -1.3297    2.5615 C.ar      1 <0>         0.1489
      9 N1          2.0236   -0.5844    2.3972 N.ar      1 <0>        -0.4918
     10 C8          3.7867   -0.9807    5.6433 C.2       1 <0>         0.5940
     11 O1          4.2881    0.1042    5.8679 O.2       1 <0>        -0.5004
     12 N2          4.1550   -2.0562    6.3674 N.am      1 <0>        -0.6182
     13 C9          3.7281   -3.4635    6.1849 C.3       1 <0>         0.1079
     14 C10         5.0035   -4.2954    6.4473 C.3       1 <0>        -0.1121
     15 H1          5.5100   -4.5199    5.5086 H         1 <0>         0.1121
     16 C11         5.8847   -3.3951    7.3294 C.3       1 <0>        -0.0711
     17 C12         5.0836   -2.0994    7.5223 C.3       1 <0>         0.1094
     18 C13         7.2035   -3.0927    6.6245 C.3       1 <0>        -0.1345
     19 C14         8.0855   -2.2437    7.5443 C.3       1 <0>        -0.0113
     20 N3          8.3317   -2.9699    8.7960 N.4       1 <0>        -0.5044
     21 C15         7.0675   -3.1754    9.5130 C.3       1 <0>        -0.0079
     22 C16         6.1423   -4.0636    8.6763 C.3       1 <0>        -0.1459
     23 C17         4.6584   -5.5698    7.1739 C.2       1 <0>         0.5186
     24 O2          3.6943   -5.6068    7.9089 O.2       1 <0>        -0.5252
     25 N4          5.4212   -6.6684    7.0071 N.am      1 <0>        -0.7136
     26 C18         5.0857   -7.9072    7.7134 C.3       1 <0>         0.1289
     27 C19         6.1023   -8.9919    7.3516 C.3       1 <0>         0.1146
     28 H2          7.0864   -8.7058    7.7226 H         1 <0>         0.0956
     29 C20         5.6886  -10.2977    7.9798 C.ar      1 <0>        -0.1289
     30 C21         6.6140  -11.0546    8.6739 C.ar      1 <0>        -0.1048
     31 C22         6.2346  -12.2524    9.2502 C.ar      1 <0>        -0.1176
     32 C23         4.9297  -12.6932    9.1328 C.ar      1 <0>        -0.1076
     33 C24         4.0041  -11.9359    8.4396 C.ar      1 <0>        -0.1168
     34 C25         4.3825  -10.7360    7.8669 C.ar      1 <0>        -0.1085
     35 N5          6.1552   -9.1460    5.8916 N.3       1 <0>        -0.5213
     36 C26         4.8837   -9.6687    5.3706 C.3       1 <0>         0.0023
     37 C27         4.9617   -9.7570    3.8442 C.3       1 <0>         0.0642
     38 O3          6.0752  -10.5751    3.4752 O.3       1 <0>        -0.3798
     39 C28         7.3299  -10.0948    3.9656 C.3       1 <0>         0.0640
     40 C29         7.2759  -10.0100    5.4933 C.3       1 <0>         0.0152
     41 H3          6.2314    1.5041    1.0624 H         1 <0>         0.0632
     42 H4          5.1673    2.4600    0.0030 H         1 <0>         0.0796
     43 H5          5.3615    2.9141    1.7131 H         1 <0>         0.0664
     44 H6          3.2020    1.7540    1.3400 H         1 <0>         0.0938
     45 H7          4.0719    0.3439    0.6893 H         1 <0>         0.0911
     46 H8          1.4824   -2.4331    5.7077 H         1 <0>         0.1436
     47 H9         -0.1675   -2.6123    3.8636 H         1 <0>         0.1484
     48 H10         0.2302   -1.4081    1.7587 H         1 <0>         0.1687
     49 H11         2.9513   -3.7214    6.9048 H         1 <0>         0.1012
     50 H12         3.3725   -3.6239    5.1671 H         1 <0>         0.0925
     51 H13         5.7489   -1.2361    7.5080 H         1 <0>         0.0916
     52 H14         4.5257   -2.1355    8.4580 H         1 <0>         0.0857
     53 H15         7.7142   -4.0271    6.3915 H         1 <0>         0.0965
     54 H16         7.0063   -2.5455    5.7027 H         1 <0>         0.1192
     55 H17         9.0353   -2.0398    7.0499 H         1 <0>         0.1400
     56 H18         7.5812   -1.3026    7.7637 H         1 <0>         0.1348
     57 H19         8.7479   -3.8652    8.5876 H         1 <0>         0.4272
     58 H20         7.2669   -3.6583   10.4696 H         1 <0>         0.1388
     59 H21         6.5875   -2.2122    9.6859 H         1 <0>         0.1335
     60 H22         5.1970   -4.2007    9.2012 H         1 <0>         0.1262
     61 H23         6.6147   -5.0329    8.5170 H         1 <0>         0.0970
     62 H24         6.1922   -6.6387    6.4193 H         1 <0>         0.4074
     63 H25         5.1103   -7.7304    8.7887 H         1 <0>         0.0784
     64 H26         4.0873   -8.2330    7.4215 H         1 <0>         0.0755
     65 H27         7.6336  -10.7102    8.7656 H         1 <0>         0.1198
     66 H28         6.9578  -12.8441    9.7918 H         1 <0>         0.1256
     67 H29         4.6334  -13.6294    9.5825 H         1 <0>         0.1263
     68 H30         2.9846  -12.2804    8.3476 H         1 <0>         0.1263
     69 H31         3.6584  -10.1425    7.3284 H         1 <0>         0.1234
     70 H32         4.7014  -10.6608    5.7837 H         1 <0>         0.0643
     71 H33         4.0713   -9.0002    5.6555 H         1 <0>         0.0858
     72 H34         4.0426  -10.1975    3.4577 H         1 <0>         0.0995
     73 H35         5.0903   -8.7579    3.4279 H         1 <0>         0.0570
     74 H36         8.1236  -10.7796    3.6669 H         1 <0>         0.0999
     75 H37         7.5274   -9.1055    3.5529 H         1 <0>         0.0580
     76 H38         8.2098   -9.5906    5.8677 H         1 <0>         0.0851
     77 H39         7.1319  -11.0075    5.9084 H         1 <0>         0.0528
     78 H40         8.9622   -2.4356    9.3749 H         1 <0>         0.4341
@<TRIPOS>BOND
     1    1    2 1
     2    1   41 1
     3    1   42 1
     4    1   43 1
     5    2    3 1
     6    2   44 1
     7    2   45 1
     8    3    4 1
     9    4    9 ar
    10    4    5 ar
    11    5    6 ar
    12    5   10 1
    13    6    7 ar
    14    6   46 1
    15    7    8 ar
    16    7   47 1
    17    8    9 ar
    18    8   48 1
    19   10   11 2
    20   10   12 am
    21   12   17 1
    22   12   13 1
    23   13   14 1
    24   13   49 1
    25   13   50 1
    26   14   15 1
    27   14   16 1
    28   14   23 1
    29   16   22 1
    30   16   17 1
    31   16   18 1
    32   17   51 1
    33   17   52 1
    34   18   19 1
    35   18   53 1
    36   18   54 1
    37   19   20 1
    38   19   55 1
    39   19   56 1
    40   20   21 1
    41   20   57 1
    42   20   78 1
    43   21   22 1
    44   21   58 1
    45   21   59 1
    46   22   60 1
    47   22   61 1
    48   23   24 2
    49   23   25 am
    50   25   26 1
    51   25   62 1
    52   26   27 1
    53   26   63 1
    54   26   64 1
    55   27   28 1
    56   27   29 1
    57   27   35 1
    58   29   34 ar
    59   29   30 ar
    60   30   31 ar
    61   30   65 1
    62   31   32 ar
    63   31   66 1
    64   32   33 ar
    65   32   67 1
    66   33   34 ar
    67   33   68 1
    68   34   69 1
    69   35   40 1
    70   35   36 1
    71   36   37 1
    72   36   70 1
    73   36   71 1
    74   37   38 1
    75   37   72 1
    76   37   73 1
    77   38   39 1
    78   39   40 1
    79   39   74 1
    80   39   75 1
    81   40   76 1
    82   40   77 1
@<TRIPOS>MOLECULE
ZINC60060987
   53    54     0     0     0
SMALL
USER_CHARGES

@<TRIPOS>ATOM
      1 C1         -1.7676    2.0442    0.7145 C.3       1 <0>        -0.1870
      2 C2         -1.9674    0.5609    1.0323 C.3       1 <0>        -0.0151
      3 N1         -1.4426   -0.2517   -0.0732 N.4       1 <0>        -0.3879
      4 C3          0.0116   -0.0673   -0.1691 C.3       1 <0>        -0.0161
      5 C4          0.5380   -0.7986   -1.4057 C.3       1 <0>        -0.1905
      6 C5         -1.7411   -1.6684    0.1758 C.3       1 <0>         0.0813
      7 C6         -3.2327   -1.8810    0.1414 C.2       1 <0>        -0.0679
      8 C7         -3.9719   -2.0933   -0.9697 C.2       1 <0>        -0.1505
      9 C8         -5.3054   -2.2400   -0.5568 C.2       1 <0>        -0.1118
     10 C9         -5.3123   -2.1082    0.8022 C.2       1 <0>        -0.0208
     11 O1         -4.0430   -1.8964    1.2076 O.3       1 <0>        -0.1552
     12 C10        -6.4920   -2.1885    1.6698 C.2       1 <0>         0.5964
     13 O2         -7.5905   -2.3894    1.1862 O.2       1 <0>        -0.4958
     14 N2         -6.3596   -2.0397    3.0028 N.am      1 <0>        -0.5075
     15 N3         -7.4865   -2.1164    3.8316 N.am      1 <0>        -0.5223
     16 C11        -7.3541   -1.9676    5.1646 C.2       1 <0>         0.5229
     17 O3         -6.2593   -1.7673    5.6466 O.2       1 <0>        -0.5347
     18 C12        -8.5663   -2.0501    6.0561 C.3       1 <0>        -0.1234
     19 C13        -8.1429   -1.8486    7.5125 C.3       1 <0>        -0.1510
     20 C14        -9.3551   -1.9311    8.4040 C.2       1 <0>         0.3994
     21 O4        -10.4497   -2.1313    7.9220 O.2       1 <0>        -0.4439
     22 C15        -9.2106   -1.7687    9.8589 C.ar      1 <0>        -0.1608
     23 C16        -7.9503   -1.5318   10.4179 C.ar      1 <0>        -0.0667
     24 C17        -7.8226   -1.3802   11.7819 C.ar      1 <0>        -0.1043
     25 C18        -8.9384   -1.4624   12.5988 C.ar      1 <0>        -0.0601
     26 C19       -10.1896   -1.6967   12.0524 C.ar      1 <0>        -0.1024
     27 C20       -10.3335   -1.8446   10.6896 C.ar      1 <0>        -0.0525
     28 Br1        -8.7525   -1.2542   14.4690 Br        1 <0>        -0.0338
     29 H1         -2.1570    2.6472    1.5347 H         1 <0>         0.1075
     30 H2         -0.7046    2.2483    0.5862 H         1 <0>         0.0827
     31 H3         -2.2989    2.2937   -0.2040 H         1 <0>         0.0808
     32 H4         -1.4361    0.3114    1.9507 H         1 <0>         0.1330
     33 H5         -3.0304    0.3568    1.1605 H         1 <0>         0.1261
     34 H6          0.2384    0.9957   -0.2517 H         1 <0>         0.1374
     35 H7          0.4889   -0.4724    0.7232 H         1 <0>         0.1334
     36 H8          1.5971   -0.5761   -1.5360 H         1 <0>         0.1092
     37 H9          0.4056   -1.8728   -1.2763 H         1 <0>         0.0813
     38 H10        -0.0137   -0.4679   -2.2857 H         1 <0>         0.0817
     39 H11        -1.2691   -2.2798   -0.5933 H         1 <0>         0.1633
     40 H12        -1.3558   -1.9543    1.1545 H         1 <0>         0.1493
     41 H13        -3.6056   -2.1407   -1.9846 H         1 <0>         0.1738
     42 H14        -6.1604   -2.4214   -1.1912 H         1 <0>         0.1791
     43 H15        -5.4840   -1.8795    3.3883 H         1 <0>         0.4360
     44 H16        -8.3621   -2.2766    3.4461 H         1 <0>         0.4391
     45 H17        -9.2782   -1.2744    5.7740 H         1 <0>         0.1130
     46 H18        -9.0327   -3.0290    5.9454 H         1 <0>         0.1133
     47 H19        -7.4310   -2.6242    7.7945 H         1 <0>         0.1128
     48 H20        -7.6765   -0.8696    7.6231 H         1 <0>         0.1124
     49 H21        -7.0794   -1.4682    9.7823 H         1 <0>         0.1429
     50 H22        -6.8503   -1.1973   12.2149 H         1 <0>         0.1417
     51 H23       -11.0550   -1.7599   12.6954 H         1 <0>         0.1426
     52 H24       -11.3103   -2.0229   10.2645 H         1 <0>         0.1450
     53 H25        -1.8759    0.0364   -0.9377 H         1 <0>         0.4246
@<TRIPOS>BOND
     1    1    2 1
     2    1   29 1
     3    1   30 1
     4    1   31 1
     5    2    3 1
     6    2   32 1
     7    2   33 1
     8    3    4 1
     9    3    6 1
    10    3   53 1
    11    4    5 1
    12    4   34 1
    13    4   35 1
    14    5   36 1
    15    5   37 1
    16    5   38 1
    17    6    7 1
    18    6   39 1
    19    6   40 1
    20    7   11 1
    21    7    8 2
    22    8    9 1
    23    8   41 1
    24    9   10 2
    25    9   42 1
    26   10   11 1
    27   10   12 1
    28   12   13 2
    29   12   14 am
    30   14   15 1
    31   14   43 1
    32   15   16 am
    33   15   44 1
    34   16   17 2
    35   16   18 1
    36   18   19 1
    37   18   45 1
    38   18   46 1
    39   19   20 1
    40   19   47 1
    41   19   48 1
    42   20   21 2
    43   20   22 1
    44   22   27 ar
    45   22   23 ar
    46   23   24 ar
    47   23   49 1
    48   24   25 ar
    49   24   50 1
    50   25   26 ar
    51   25   28 1
    52   26   27 ar
    53   26   51 1
    54   27   52 1
@<TRIPOS>MOLECULE
ZINC08862046
   60    63     0     0     0
SMALL
USER_CHARGES
N-(6-amino-1-benzyl-2,4-dioxo-pyrimidin-5-yl)-N-ethyl-2-(7,9,10-triazabicyclo[5.3.0]deca-8,10-dien-8-ylsulfanyl)acetamide
@<TRIPOS>ATOM
      1 C1          4.2474    2.7312   -1.1832 C.3       1 <0>        -0.1714
      2 C2          3.6455    2.9980    0.1979 C.3       1 <0>         0.0956
      3 N1          2.3586    3.6813    0.0461 N.am      1 <0>        -0.5216
      4 C3          1.1602    2.9366    0.0456 C.2       1 <0>        -0.1427
      5 C4          0.7485    2.2687    1.1807 C.2       1 <0>         0.4884
      6 N2         -0.4247    1.5513    1.1495 N.am      1 <0>        -0.5338
      7 C5         -1.1650    1.5056    0.0270 C.2       1 <0>         0.7142
      8 O1         -2.2015    0.8697    0.0210 O.2       1 <0>        -0.5318
      9 N3         -0.7770    2.1460   -1.0902 N.am      1 <0>        -0.6621
     10 H1         -1.3416    2.0897   -1.9136 H         1 <0>         0.4400
     11 C6          0.3638    2.8626   -1.1126 C.2       1 <0>         0.5691
     12 O2          0.7042    3.4429   -2.1297 O.2       1 <0>        -0.5107
     13 C7         -0.8738    0.8374    2.3473 C.3       1 <0>         0.1489
     14 C8         -1.7441    1.7459    3.1769 C.ar      1 <0>        -0.1291
     15 C9         -1.1773    2.5437    4.1533 C.ar      1 <0>        -0.1025
     16 C10        -1.9750    3.3807    4.9110 C.ar      1 <0>        -0.1202
     17 C11        -3.3407    3.4120    4.6995 C.ar      1 <0>        -0.1038
     18 C12        -3.9081    2.6104    3.7267 C.ar      1 <0>        -0.1196
     19 C13        -3.1098    1.7773    2.9655 C.ar      1 <0>        -0.0856
     20 N4          1.5022    2.3191    2.3289 N.pl3     1 <0>        -0.8320
     21 C14         2.3193    5.0228   -0.0934 C.2       1 <0>         0.5409
     22 O3          1.2517    5.5981   -0.1290 O.2       1 <0>        -0.5010
     23 C15         3.6016    5.8067   -0.2048 C.3       1 <0>        -0.1422
     24 S1          3.2193    7.5671   -0.3801 S.3       1 <0>         0.0795
     25 C16         4.8503    8.2253   -0.4865 C.2       1 <0>         0.1376
     26 N5          5.9744    7.5449   -0.4416 N.2       1 <0>        -0.2961
     27 N6          6.9757    8.3457   -0.5543 N.2       1 <0>        -0.2833
     28 C17         6.5532    9.5689   -0.6803 C.2       1 <0>         0.1914
     29 N7          5.1884    9.5351   -0.6367 N.pl3     1 <0>        -0.4553
     30 C18         4.2860   10.6832   -0.7205 C.3       1 <0>         0.1019
     31 C19         4.9549   11.7939   -1.5356 C.3       1 <0>        -0.1400
     32 C20         5.7699   12.6946   -0.6094 C.3       1 <0>        -0.1256
     33 C21         6.8771   11.9006    0.0763 C.3       1 <0>        -0.1245
     34 C22         7.3891   10.8096   -0.8608 C.3       1 <0>        -0.0366
     35 H2          5.2050    2.2228   -1.0702 H         1 <0>         0.0718
     36 H3          3.5686    2.1034   -1.7603 H         1 <0>         0.0637
     37 H4          4.3976    3.6775   -1.7030 H         1 <0>         0.0617
     38 H5          4.3244    3.6258    0.7750 H         1 <0>         0.0870
     39 H6          3.4954    2.0517    0.7177 H         1 <0>         0.0830
     40 H7         -1.4447   -0.0432    2.0528 H         1 <0>         0.1224
     41 H8         -0.0075    0.5297    2.9330 H         1 <0>         0.1003
     42 H9         -0.1109    2.5159    4.3215 H         1 <0>         0.1158
     43 H10        -1.5318    4.0067    5.6712 H         1 <0>         0.1261
     44 H11        -3.9645    4.0626    5.2945 H         1 <0>         0.1260
     45 H12        -4.9751    2.6346    3.5617 H         1 <0>         0.1274
     46 H13        -3.5531    1.1507    2.2057 H         1 <0>         0.1335
     47 H14         2.3494    2.7914    2.3325 H         1 <0>         0.4242
     48 H15         1.1868    1.8825    3.1356 H         1 <0>         0.4066
     49 H16         4.2008    5.6526    0.6926 H         1 <0>         0.1259
     50 H17         4.1601    5.4675   -1.0772 H         1 <0>         0.1301
     51 H18         3.3585   10.3823   -1.2078 H         1 <0>         0.0990
     52 H19         4.0684   11.0489    0.2830 H         1 <0>         0.0937
     53 H20         5.6141   11.3495   -2.2813 H         1 <0>         0.0818
     54 H21         4.1897   12.3868   -2.0367 H         1 <0>         0.0920
     55 H22         6.2145   13.5010   -1.1925 H         1 <0>         0.0755
     56 H23         5.1116   13.1206    0.1479 H         1 <0>         0.0713
     57 H24         7.6972   12.5704    0.3347 H         1 <0>         0.0830
     58 H25         6.4853   11.4409    0.9837 H         1 <0>         0.0648
     59 H26         8.4307   10.5841   -0.6318 H         1 <0>         0.1032
     60 H27         7.3077   11.1576   -1.8906 H         1 <0>         0.0942
@<TRIPOS>BOND
     1    1    2 1
     2    1   35 1
     3    1   36 1
     4    1   37 1
     5    2    3 1
     6    2   38 1
     7    2   39 1
     8    3    4 1
     9    3   21 am
    10    4   11 1
    11    4    5 2
    12    5    6 1
    13    5   20 1
    14    6    7 am
    15    6   13 1
    16    7    8 2
    17    7    9 am
    18    9   10 1
    19    9   11 am
    20   11   12 2
    21   13   14 1
    22   13   40 1
    23   13   41 1
    24   14   19 ar
    25   14   15 ar
    26   15   16 ar
    27   15   42 1
    28   16   17 ar
    29   16   43 1
    30   17   18 ar
    31   17   44 1
    32   18   19 ar
    33   18   45 1
    34   19   46 1
    35   20   47 1
    36   20   48 1
    37   21   22 2
    38   21   23 1
    39   23   24 1
    40   23   49 1
    41   23   50 1
    42   24   25 1
    43   25   29 1
    44   25   26 2
    45   26   27 1
    46   27   28 2
    47   28   34 1
    48   28   29 1
    49   29   30 1
    50   30   31 1
    51   30   51 1
    52   30   52 1
    53   31   32 1
    54   31   53 1
    55   31   54 1
    56   32   33 1
    57   32   55 1
    58   32   56 1
    59   33   34 1
    60   33   57 1
    61   33   58 1
    62   34   59 1
    63   34   60 1
@<TRIPOS>MOLECULE
ZINC12822336
   59    62     0     0     0
SMALL
USER_CHARGES
N-[1-(4-acetamidophenyl)sulfonyl-4-piperidyl]-5-(cyclopropanecarbonylamino)thiophene-2-carboxamide
@<TRIPOS>ATOM
      1 C1          2.3351    1.0315   -0.7734 C.3       1 <0>        -0.1705
      2 C2          0.9244    1.5612   -0.7588 C.2       1 <0>         0.5114
      3 O1          0.6308    2.5233   -1.4364 O.2       1 <0>        -0.5171
      4 N1         -0.0111    0.9658    0.0074 N.am      1 <0>        -0.6787
      5 C3         -1.2924    1.5197    0.1041 C.ar      1 <0>         0.2036
      6 C4         -1.4604    2.8974    0.0555 C.ar      1 <0>        -0.1437
      7 C5         -2.7270    3.4407    0.1454 C.ar      1 <0>         0.0018
      8 C6         -3.8260    2.6150    0.2957 C.ar      1 <0>        -0.6947
      9 C7         -3.6616    1.2431    0.3497 C.ar      1 <0>         0.0025
     10 C8         -2.3982    0.6932    0.2546 C.ar      1 <0>        -0.1677
     11 S1         -5.4394    3.3125    0.4180 S.o2      1 <0>         2.6920
     12 O2         -5.3793    4.5872   -0.2072 O.2       1 <0>        -0.9526
     13 O3         -6.3505    2.3035    0.0046 O.2       1 <0>        -0.9529
     14 N2         -5.7338    3.5867    2.0244 N.pl3     1 <0>        -0.9981
     15 C9         -6.3655    2.5537    2.8566 C.3       1 <0>         0.1233
     16 C10        -5.4767    2.3048    4.0847 C.3       1 <0>        -0.1466
     17 C11        -5.2325    3.6313    4.8077 C.3       1 <0>         0.1492
     18 C12        -4.5013    4.5970    3.8722 C.3       1 <0>        -0.1454
     19 C13        -5.3739    4.8698    2.6431 C.3       1 <0>         0.1245
     20 N3         -4.4150    3.3940    6.0001 N.am      1 <0>        -0.7247
     21 C14        -5.0004    3.0193    7.1548 C.2       1 <0>         0.6114
     22 O4         -6.2087    2.8781    7.2070 O.2       1 <0>        -0.5277
     23 C15        -4.1849    2.7826    8.3443 C.2       1 <0>        -0.2982
     24 C16        -4.5878    2.4012    9.6162 C.2       1 <0>        -0.0394
     25 C17        -3.6113    2.2411   10.5625 C.2       1 <0>        -0.2280
     26 C18        -2.2999    2.4755   10.2087 C.2       1 <0>         0.0594
     27 S2         -2.4166    2.9171    8.5364 S.3       1 <0>         0.2491
     28 N4         -1.1616    2.3803   10.9997 N.am      1 <0>        -0.6163
     29 C19         0.0493    2.6508   10.4733 C.2       1 <0>         0.5378
     30 O5          0.1453    2.9773    9.3092 O.2       1 <0>        -0.5002
     31 C20         1.2840    2.5475   11.3312 C.3       1 <0>        -0.1981
     32 C21         2.0143    3.8466   11.6774 C.3       1 <0>        -0.1475
     33 C22         2.6288    2.8673   10.6753 C.3       1 <0>        -0.1409
     34 H1          2.4071    0.1710   -0.1082 H         1 <0>         0.0805
     35 H2          2.5996    0.7302   -1.7870 H         1 <0>         0.1020
     36 H3          3.0191    1.8101   -0.4357 H         1 <0>         0.1030
     37 H4          0.2027    0.1512    0.4885 H         1 <0>         0.4161
     38 H5         -0.6019    3.5430   -0.0567 H         1 <0>         0.1434
     39 H6         -2.8588    4.5118    0.1029 H         1 <0>         0.1432
     40 H7         -4.5220    0.6009    0.4667 H         1 <0>         0.1437
     41 H8         -2.2704   -0.3783    0.2968 H         1 <0>         0.1365
     42 H9         -7.3499    2.8945    3.1776 H         1 <0>         0.0826
     43 H10        -6.4647    1.6323    2.2828 H         1 <0>         0.0959
     44 H11        -4.5233    1.8825    3.7673 H         1 <0>         0.0713
     45 H12        -5.9766    1.6095    4.7592 H         1 <0>         0.0842
     46 H13        -6.1878    4.0652    5.1031 H         1 <0>         0.0967
     47 H14        -3.5571    4.1531    3.5568 H         1 <0>         0.0756
     48 H15        -4.3070    5.5333    4.3955 H         1 <0>         0.0865
     49 H16        -4.8186    5.4771    1.9283 H         1 <0>         0.0982
     50 H17        -6.2791    5.3956    2.9469 H         1 <0>         0.0829
     51 H18        -3.4525    3.5066    5.9585 H         1 <0>         0.3984
     52 H19        -5.6291    2.2343    9.8495 H         1 <0>         0.1483
     53 H20        -3.8644    1.9412   11.5687 H         1 <0>         0.1415
     54 H21        -1.2383    2.1192   11.9307 H         1 <0>         0.4246
     55 H22         1.2668    1.7626   12.0873 H         1 <0>         0.1326
     56 H23         1.6018    4.7760   11.2847 H         1 <0>         0.1028
     57 H24         2.4777    3.9166   12.6615 H         1 <0>         0.1112
     58 H25         3.4964    2.2930   11.0001 H         1 <0>         0.1097
     59 H26         2.6204    3.1523    9.6232 H         1 <0>         0.1114
@<TRIPOS>BOND
     1    1    2 1
     2    1   34 1
     3    1   35 1
     4    1   36 1
     5    2    3 2
     6    2    4 am
     7    4    5 1
     8    4   37 1
     9    5   10 ar
    10    5    6 ar
    11    6    7 ar
    12    6   38 1
    13    7    8 ar
    14    7   39 1
    15    8    9 ar
    16    8   11 1
    17    9   10 ar
    18    9   40 1
    19   10   41 1
    20   11   12 2
    21   11   13 2
    22   11   14 1
    23   14   19 1
    24   14   15 1
    25   15   16 1
    26   15   42 1
    27   15   43 1
    28   16   17 1
    29   16   44 1
    30   16   45 1
    31   17   18 1
    32   17   20 1
    33   17   46 1
    34   18   19 1
    35   18   47 1
    36   18   48 1
    37   19   49 1
    38   19   50 1
    39   20   21 am
    40   20   51 1
    41   21   22 2
    42   21   23 1
    43   23   27 1
    44   23   24 2
    45   24   25 1
    46   24   52 1
    47   25   26 2
    48   25   53 1
    49   26   27 1
    50   26   28 1
    51   28   29 am
    52   28   54 1
    53   29   30 2
    54   29   31 1
    55   31   33 1
    56   31   32 1
    57   31   55 1
    58   32   33 1
    59   32   56 1
    60   32   57 1
    61   33   58 1
    62   33   59 1
@<TRIPOS>MOLECULE
ZINC15546649
   53    56     0     0     0
SMALL
USER_CHARGES
(2S)-4-[2-(2,3-dihydro-1,4-benzodioxin-6-ylcarbamoylamino)-2-oxo-ethyl]-N-methyl-2,3-dihydro-1,4-benzoxazine-2-carboxamide
@<TRIPOS>ATOM
      1 C1        -10.1491    4.0647   -3.6554 C.3       1 <0>         0.0877
      2 N1        -10.0606    3.3071   -2.4046 N.am      1 <0>        -0.7281
      3 C2        -10.9834    2.3671   -2.1194 C.2       1 <0>         0.5229
      4 O1        -11.8870    2.1484   -2.8982 O.2       1 <0>        -0.5091
      5 C3        -10.8924    1.5878   -0.8328 C.3       1 <0>         0.0761
      6 H1        -10.8700    2.2738    0.0140 H         1 <0>         0.1139
      7 C4         -9.6230    0.7260   -0.8364 C.3       1 <0>         0.0215
      8 N2         -9.5241    0.0326    0.4532 N.pl3     1 <0>        -0.4651
      9 C5        -10.7134   -0.6201    0.7930 C.ar      1 <0>         0.0375
     10 C6        -10.6663   -1.6406    1.7378 C.ar      1 <0>        -0.1252
     11 C7        -11.8208   -2.3040    2.1029 C.ar      1 <0>        -0.1211
     12 C8        -13.0304   -1.9580    1.5299 C.ar      1 <0>        -0.1054
     13 C9        -13.0860   -0.9475    0.5890 C.ar      1 <0>        -0.1164
     14 C10       -11.9299   -0.2765    0.2160 C.ar      1 <0>         0.0953
     15 O2        -12.0183    0.7116   -0.7166 O.3       1 <0>        -0.2857
     16 C11        -8.3898   -0.9007    0.4634 C.3       1 <0>         0.0352
     17 C12        -7.0994   -0.1235    0.4207 C.2       1 <0>         0.5171
     18 O3         -7.1179    1.0866    0.4932 O.2       1 <0>        -0.4415
     19 N3         -5.9248   -0.7735    0.3018 N.am      1 <0>        -0.6886
     20 C13        -4.7707   -0.0784    0.2635 C.2       1 <0>         0.6943
     21 O4         -4.7893    1.1347    0.3362 O.2       1 <0>        -0.5055
     22 N4         -3.5961   -0.7285    0.1447 N.am      1 <0>        -0.6741
     23 C14        -2.3912   -0.0165    0.2135 C.ar      1 <0>         0.1620
     24 C15        -1.2976   -0.4279   -0.5365 C.ar      1 <0>        -0.1367
     25 C16        -0.1083    0.2712   -0.4657 C.ar      1 <0>        -0.0919
     26 C17        -0.0045    1.3894    0.3485 C.ar      1 <0>         0.0379
     27 C18        -1.0983    1.8048    1.0987 C.ar      1 <0>         0.0732
     28 C19        -2.2905    1.1002    1.0308 C.ar      1 <0>        -0.1147
     29 O5         -1.0160    2.8999    1.9029 O.3       1 <0>        -0.3032
     30 C20         0.2995    3.3582    2.2335 C.3       1 <0>         0.0197
     31 C21         1.1342    3.3906    0.9460 C.3       1 <0>         0.0200
     32 O6          1.1766    2.0653    0.4060 O.3       1 <0>        -0.3064
     33 H2        -10.0957    3.3783   -4.5004 H         1 <0>         0.0629
     34 H3        -11.0947    4.6060   -3.6862 H         1 <0>         0.0642
     35 H4         -9.3227    4.7734   -3.7101 H         1 <0>         0.0814
     36 H5         -9.3379    3.4820   -1.7817 H         1 <0>         0.4072
     37 H6         -8.7493    1.3622   -0.9778 H         1 <0>         0.1166
     38 H7         -9.6769   -0.0060   -1.6423 H         1 <0>         0.0655
     39 H8         -9.7234   -1.9139    2.1880 H         1 <0>         0.1306
     40 H9        -11.7787   -3.0948    2.8372 H         1 <0>         0.1293
     41 H10       -13.9324   -2.4774    1.8180 H         1 <0>         0.1327
     42 H11       -14.0321   -0.6789    0.1428 H         1 <0>         0.1365
     43 H12        -8.4492   -1.5544   -0.4068 H         1 <0>         0.0872
     44 H13        -8.4220   -1.5017    1.3722 H         1 <0>         0.1308
     45 H14        -5.9100   -1.7417    0.2438 H         1 <0>         0.4127
     46 H15        -3.5848   -1.6893    0.0115 H         1 <0>         0.4121
     47 H16        -1.3759   -1.2965   -1.1734 H         1 <0>         0.1377
     48 H17         0.7411   -0.0502   -1.0503 H         1 <0>         0.1419
     49 H18        -3.1409    1.4205    1.6144 H         1 <0>         0.1481
     50 H19         0.2435    4.3594    2.6607 H         1 <0>         0.1243
     51 H20         0.7564    2.6772    2.9516 H         1 <0>         0.0794
     52 H21         0.6730    4.0665    0.2259 H         1 <0>         0.0790
     53 H22         2.1457    3.7279    1.1721 H         1 <0>         0.1242
@<TRIPOS>BOND
     1    1    2 1
     2    1   33 1
     3    1   34 1
     4    1   35 1
     5    2    3 am
     6    2   36 1
     7    3    4 2
     8    3    5 1
     9    5    6 1
    10    5   15 1
    11    5    7 1
    12    7    8 1
    13    7   37 1
    14    7   38 1
    15    8    9 1
    16    8   16 1
    17    9   14 ar
    18    9   10 ar
    19   10   11 ar
    20   10   39 1
    21   11   12 ar
    22   11   40 1
    23   12   13 ar
    24   12   41 1
    25   13   14 ar
    26   13   42 1
    27   14   15 1
    28   16   17 1
    29   16   43 1
    30   16   44 1
    31   17   18 2
    32   17   19 am
    33   19   20 am
    34   19   45 1
    35   20   21 2
    36   20   22 am
    37   22   23 1
    38   22   46 1
    39   23   28 ar
    40   23   24 ar
    41   24   25 ar
    42   24   47 1
    43   25   26 ar
    44   25   48 1
    45   26   32 1
    46   26   27 ar
    47   27   28 ar
    48   27   29 1
    49   28   49 1
    50   29   30 1
    51   30   31 1
    52   30   50 1
    53   30   51 1
    54   31   32 1
    55   31   52 1
    56   31   53 1
@<TRIPOS>MOLECULE
ZINC29767513
   48    50     0     0     0
SMALL
USER_CHARGES
(2R)-4-[2-(4-carbamoyl-2-nitro-phenyl)sulfanylacetyl]-N-methyl-2,3-dihydro-1,4-benzoxazine-2-carboxamide
@<TRIPOS>ATOM
      1 C1          5.9673   -1.2107    0.1893 C.3       1 <0>         0.0876
      2 N1          4.7814   -0.4108    0.5057 N.am      1 <0>        -0.7404
      3 C2          3.5645   -0.8176    0.0932 C.2       1 <0>         0.5220
      4 O1          3.4512   -1.8458   -0.5400 O.2       1 <0>        -0.5021
      5 C3          2.3446    0.0052    0.4187 C.3       1 <0>         0.0607
      6 H1          2.2511    0.1233    1.5083 H         1 <0>         0.1085
      7 C4          2.4259    1.3555   -0.3075 C.3       1 <0>         0.0760
      8 N2          1.1940    2.1016    0.0016 N.am      1 <0>        -0.5471
      9 C5         -0.0188    1.3913   -0.0063 C.ar      1 <0>         0.0701
     10 C6         -1.2243    2.0747   -0.0010 C.ar      1 <0>        -0.1146
     11 C7         -2.4147    1.3716   -0.0097 C.ar      1 <0>        -0.1259
     12 C8         -2.4024   -0.0111   -0.0154 C.ar      1 <0>        -0.0977
     13 C9         -1.2029   -0.6976   -0.0168 C.ar      1 <0>        -0.1227
     14 C10        -0.0037   -0.0007   -0.0135 C.ar      1 <0>         0.0965
     15 O2          1.1712   -0.6838   -0.0195 O.3       1 <0>        -0.2858
     16 C11         1.2286    3.4195    0.2818 C.2       1 <0>         0.5437
     17 O3          0.1950    4.0295    0.4574 O.2       1 <0>        -0.4835
     18 C12         2.5514    4.1352    0.3769 C.3       1 <0>        -0.2185
     19 S1          2.2754    5.8479    0.9072 S.3       1 <0>         0.1337
     20 C13         3.8943    6.5409    0.9695 C.ar      1 <0>        -0.0427
     21 C14         4.9987    5.7580    0.6411 C.ar      1 <0>        -0.1492
     22 C15         6.2556    6.2897    0.6876 C.ar      1 <0>        -0.0137
     23 C16         6.4384    7.6236    1.0656 C.ar      1 <0>        -0.1474
     24 C17         5.3315    8.4118    1.3958 C.ar      1 <0>         0.0292
     25 C18         4.0667    7.8721    1.3416 C.ar      1 <0>        -0.0434
     26 N3          2.8911    8.7038    1.6843 N.pl3     1 <0>         0.0280
     27 O4          3.0425    9.8677    2.0096 O.2       1 <0>        -0.1468
     28 O5          1.7724    8.2241    1.6410 O.3       1 <0>        -0.1400
     29 C19         7.7958    8.1977    1.1164 C.2       1 <0>         0.5666
     30 O6          7.9534    9.3578    1.4452 O.2       1 <0>        -0.5336
     31 N4          8.8617    7.4367    0.7983 N.am      1 <0>        -0.8696
     32 H2          6.8607   -0.7225    0.6059 H         1 <0>         0.0819
     33 H3          6.0715   -1.2959   -0.9024 H         1 <0>         0.0635
     34 H4          5.8601   -2.2142    0.6268 H         1 <0>         0.0636
     35 H5          4.8842    0.5218    1.0799 H         1 <0>         0.4219
     36 H6          3.3085    1.9091    0.0455 H         1 <0>         0.1106
     37 H7          2.5094    1.1847   -1.3910 H         1 <0>         0.1045
     38 H8         -1.2339    3.1547    0.0034 H         1 <0>         0.1736
     39 H9         -3.3550    1.9028   -0.0087 H         1 <0>         0.1324
     40 H10        -3.3342   -0.5570   -0.0184 H         1 <0>         0.1339
     41 H11        -1.1994   -1.7776   -0.0208 H         1 <0>         0.1384
     42 H12         3.1933    3.6235    1.1091 H         1 <0>         0.1257
     43 H13         3.0424    4.1307   -0.6074 H         1 <0>         0.1299
     44 H14         4.8605    4.7274    0.3492 H         1 <0>         0.1492
     45 H15         7.1093    5.6796    0.4319 H         1 <0>         0.1489
     46 H16         5.4685    9.4425    1.6879 H         1 <0>         0.1721
     47 H17         9.8742    7.8650    0.8362 H         1 <0>         0.4349
     48 H18         8.7192    6.3873    0.5008 H         1 <0>         0.4170
@<TRIPOS>BOND
     1    1    2 1
     2    1   32 1
     3    1   33 1
     4    1   34 1
     5    2    3 am
     6    2   35 1
     7    3    4 2
     8    3    5 1
     9    5    6 1
    10    5   15 1
    11    5    7 1
    12    7    8 1
    13    7   36 1
    14    7   37 1
    15    8    9 1
    16    8   16 am
    17    9   14 ar
    18    9   10 ar
    19   10   11 ar
    20   10   38 1
    21   11   12 ar
    22   11   39 1
    23   12   13 ar
    24   12   40 1
    25   13   14 ar
    26   13   41 1
    27   14   15 1
    28   16   17 2
    29   16   18 1
    30   18   19 1
    31   18   42 1
    32   18   43 1
    33   19   20 1
    34   20   25 ar
    35   20   21 ar
    36   21   22 ar
    37   21   44 1
    38   22   23 ar
    39   22   45 1
    40   23   24 ar
    41   23   29 1
    42   24   25 ar
    43   24   46 1
    44   25   26 1
    45   26   27 2
    46   26   28 1
    47   29   30 2
    48   29   31 am
    49   31   47 1
    50   31   48 1
@<TRIPOS>MOLECULE
ZINC20567277
   61    65     0     0     0
SMALL
USER_CHARGES

@<TRIPOS>ATOM
      1 C1         -0.0187    1.5258    0.0104 C.3       1 <0>        -0.1820
      2 C2          0.0021   -0.0041    0.0020 C.3       1 <0>         0.1026
      3 H1         -1.0205   -0.3814    0.0098 H         1 <0>         0.0543
      4 C3          0.7182   -0.4975   -1.2568 C.3       1 <0>         0.0932
      5 H2          1.7395   -0.1175   -1.2847 H         1 <0>         0.1241
      6 C4          0.7178   -2.0400   -1.3048 C.3       1 <0>        -0.1447
      7 H3          1.6278   -2.4725   -0.8887 H         1 <0>         0.1482
      8 C5          0.5140   -2.3929   -2.8048 C.3       1 <0>        -0.1394
      9 H4          1.3111   -3.0198   -3.2044 H         1 <0>         0.1472
     10 C6         -0.8324   -3.0816   -2.8199 C.2       1 <0>         0.5279
     11 O1         -1.3782   -3.5308   -3.8047 O.2       1 <0>        -0.4466
     12 N1         -1.3271   -3.1186   -1.5774 N.am      1 <0>        -0.5747
     13 C7         -0.5333   -2.5605   -0.6348 C.2       1 <0>         0.5315
     14 O2         -0.7770   -2.4834    0.5502 O.2       1 <0>        -0.4455
     15 C8         -2.6236   -3.7217   -1.2586 C.3       1 <0>         0.1056
     16 C9         -2.4298   -5.2030   -0.9287 C.3       1 <0>        -0.0883
     17 C10        -3.7635   -5.8233   -0.6008 C.ar      1 <0>        -0.0822
     18 C11        -4.2215   -5.8246    0.7037 C.ar      1 <0>        -0.1075
     19 C12        -5.4443   -6.3924    1.0096 C.ar      1 <0>        -0.1703
     20 C13        -6.2139   -6.9615    0.0077 C.ar      1 <0>         0.1001
     21 C14        -5.7531   -6.9599   -1.3053 C.ar      1 <0>         0.1021
     22 C15        -4.5287   -6.3848   -1.6059 C.ar      1 <0>        -0.1644
     23 O3         -6.5048   -7.5172   -2.2921 O.3       1 <0>        -0.3058
     24 C16        -5.9686   -7.4792   -3.6161 C.3       1 <0>         0.0253
     25 O4         -7.4168   -7.5209    0.3071 O.3       1 <0>        -0.3064
     26 C17        -7.8256   -7.4866    1.6759 C.3       1 <0>         0.0256
     27 C18         0.4210   -1.0346   -3.5109 C.3       1 <0>         0.1267
     28 N2         -0.0245   -0.0745   -2.4738 N.3       1 <0>        -0.6178
     29 C19         1.7355   -0.6429   -4.1242 C.ar      1 <0>        -0.1222
     30 C20         2.9964   -0.4348   -3.6115 C.ar      1 <0>        -0.0504
     31 C21         4.0341   -0.0713   -4.4513 C.ar      1 <0>        -0.1386
     32 C22         3.8011    0.0824   -5.8059 C.ar      1 <0>        -0.0743
     33 C23         2.5395   -0.1241   -6.3238 C.ar      1 <0>        -0.1377
     34 C24         1.4890   -0.4900   -5.4853 C.ar      1 <0>         0.1548
     35 N3          0.1457   -0.7499   -5.7652 N.am      1 <0>        -0.6556
     36 C25        -0.5500   -1.0760   -4.6588 C.2       1 <0>         0.5386
     37 O5         -1.7300   -1.3504   -4.5998 O.2       1 <0>        -0.4653
     38 O6          0.6932   -0.4774    1.1597 O.3       1 <0>        -0.5487
     39 H5          1.0039    1.9031    0.0027 H         1 <0>         0.0681
     40 H6         -0.5459    1.8868   -0.8726 H         1 <0>         0.0731
     41 H7         -0.5289    1.8773    0.9072 H         1 <0>         0.0599
     42 H8         -3.0599   -3.2121   -0.3995 H         1 <0>         0.0962
     43 H9         -3.2901   -3.6245   -2.1157 H         1 <0>         0.0973
     44 H10        -1.9935   -5.7126   -1.7878 H         1 <0>         0.0776
     45 H11        -1.7633   -5.3002   -0.0717 H         1 <0>         0.0805
     46 H12        -3.6226   -5.3813    1.4854 H         1 <0>         0.1288
     47 H13        -5.7995   -6.3926    2.0295 H         1 <0>         0.1371
     48 H14        -4.1705   -6.3789   -2.6247 H         1 <0>         0.1363
     49 H15        -6.6663   -7.9562   -4.3045 H         1 <0>         0.1020
     50 H16        -5.8139   -6.4427   -3.9158 H         1 <0>         0.0559
     51 H17        -5.0167   -8.0097   -3.6380 H         1 <0>         0.0550
     52 H18        -7.8931   -6.4510    2.0092 H         1 <0>         0.0553
     53 H19        -8.7999   -7.9649    1.7763 H         1 <0>         0.1015
     54 H20        -7.0955   -8.0179    2.2865 H         1 <0>         0.0553
     55 H21        -1.0212   -0.1258   -2.3252 H         1 <0>         0.3501
     56 H22         3.1753   -0.5550   -2.5532 H         1 <0>         0.1292
     57 H23         5.0234    0.0923   -4.0501 H         1 <0>         0.1336
     58 H24         4.6111    0.3660   -6.4616 H         1 <0>         0.1343
     59 H25         2.3655   -0.0019   -7.3826 H         1 <0>         0.1298
     60 H26        -0.2414   -0.7012   -6.6533 H         1 <0>         0.4191
     61 H27         0.2938   -0.2021    1.9962 H         1 <0>         0.3846
@<TRIPOS>BOND
     1    1    2 1
     2    1   39 1
     3    1   40 1
     4    1   41 1
     5    2    3 1
     6    2    4 1
     7    2   38 1
     8    4    5 1
     9    4   28 1
    10    4    6 1
    11    6    7 1
    12    6   13 1
    13    6    8 1
    14    8    9 1
    15    8   10 1
    16    8   27 1
    17   10   11 2
    18   10   12 am
    19   12   13 am
    20   12   15 1
    21   13   14 2
    22   15   16 1
    23   15   42 1
    24   15   43 1
    25   16   17 1
    26   16   44 1
    27   16   45 1
    28   17   22 ar
    29   17   18 ar
    30   18   19 ar
    31   18   46 1
    32   19   20 ar
    33   19   47 1
    34   20   21 ar
    35   20   25 1
    36   21   22 ar
    37   21   23 1
    38   22   48 1
    39   23   24 1
    40   24   49 1
    41   24   50 1
    42   24   51 1
    43   25   26 1
    44   26   52 1
    45   26   53 1
    46   26   54 1
    47   27   36 1
    48   27   28 1
    49   27   29 1
    50   28   55 1
    51   29   34 ar
    52   29   30 ar
    53   30   31 ar
    54   30   56 1
    55   31   32 ar
    56   31   57 1
    57   32   33 ar
    58   32   58 1
    59   33   34 ar
    60   33   59 1
    61   34   35 1
    62   35   36 am
    63   35   60 1
    64   36   37 2
    65   38   61 1
@<TRIPOS>MOLECULE
ZINC08893146
   59    62     0     0     0
SMALL
USER_CHARGES
4-acetyl-8-[1-(p-tolylsulfonyl)pyrrolidin-2-yl]carbonylamino-7-thia-4-azabicyclo[4.3.0]nona-8,10-diene-9-carboxamide
@<TRIPOS>ATOM
      1 C1          0.6491    7.6689   -0.2316 C.3       1 <0>        -0.1270
      2 C2          0.0254    6.3270    0.0536 C.ar      1 <0>        -0.0255
      3 C3         -1.1915    5.9961   -0.5126 C.ar      1 <0>        -0.1408
      4 C4         -1.7638    4.7653   -0.2507 C.ar      1 <0>        -0.0164
      5 C5         -1.1193    3.8656    0.5775 C.ar      1 <0>        -0.6874
      6 C6          0.0951    4.1986    1.1479 C.ar      1 <0>        -0.0157
      7 C7          0.6699    5.4272    0.8817 C.ar      1 <0>        -0.1411
      8 S1         -1.8491    2.2970    0.9118 S.o2      1 <0>         2.7031
      9 O1         -3.2281    2.4136    0.5893 O.2       1 <0>        -0.9416
     10 O2         -1.3987    1.9062    2.2016 O.2       1 <0>        -0.9418
     11 N1         -1.2014    1.2166   -0.1631 N.pl3     1 <0>        -0.9924
     12 C8         -1.6811    0.9786   -1.5367 C.3       1 <0>         0.1179
     13 C9         -0.4547    0.4081   -2.2918 C.3       1 <0>        -0.1268
     14 C10         0.2047   -0.4706   -1.1961 C.3       1 <0>        -0.1183
     15 C11        -0.0493    0.3331    0.0966 C.3       1 <0>         0.1440
     16 H1          0.8296    0.9298    0.3409 H         1 <0>         0.1062
     17 C12        -0.3653   -0.6073    1.2310 C.2       1 <0>         0.5006
     18 O3         -1.5181   -0.8851    1.4852 O.2       1 <0>        -0.4802
     19 N2          0.6333   -1.1395    1.9631 N.am      1 <0>        -0.6146
     20 C13         0.3426   -2.0048    3.0069 C.2       1 <0>         0.0826
     21 C14         1.2237   -2.6513    3.8618 C.2       1 <0>        -0.2325
     22 C15         0.6574   -3.5128    4.8868 C.2       1 <0>        -0.0471
     23 C16        -0.6910   -3.5938    4.8850 C.2       1 <0>        -0.2495
     24 S2         -1.2090   -2.5472    3.5555 S.3       1 <0>         0.2646
     25 C17        -1.5443   -4.3982    5.8189 C.3       1 <0>         0.1965
     26 N3         -0.6390   -5.2699    6.5937 N.am      1 <0>        -0.6136
     27 C18         0.6157   -4.6802    7.0846 C.3       1 <0>         0.1123
     28 C19         1.4957   -4.2857    5.8971 C.3       1 <0>        -0.0771
     29 C20        -0.9509   -6.5573    6.8422 C.2       1 <0>         0.5197
     30 O4         -0.1535   -7.2765    7.4060 O.2       1 <0>        -0.5419
     31 C21        -2.2904   -7.1033    6.4194 C.3       1 <0>        -0.1787
     32 C22         2.6734   -2.4694    3.7383 C.2       1 <0>         0.5842
     33 O5          3.2292   -1.5775    4.3522 O.2       1 <0>        -0.5304
     34 N4          3.3903   -3.2897    2.9449 N.am      1 <0>        -0.8475
     35 H2          0.3129    8.3913    0.5122 H         1 <0>         0.0815
     36 H3          1.7347    7.5815   -0.1885 H         1 <0>         0.0741
     37 H4          0.3507    8.0046   -1.2248 H         1 <0>         0.0743
     38 H5         -1.6953    6.6992   -1.1594 H         1 <0>         0.1351
     39 H6         -2.7147    4.5069   -0.6928 H         1 <0>         0.1417
     40 H7          0.5965    3.4973    1.7984 H         1 <0>         0.1369
     41 H8          1.6204    5.6859    1.3244 H         1 <0>         0.1344
     42 H9         -2.0058    1.9140   -1.9925 H         1 <0>         0.0837
     43 H10        -2.4955    0.2542   -1.5339 H         1 <0>         0.0819
     44 H11         0.2160    1.2072   -2.6078 H         1 <0>         0.0836
     45 H12        -0.7667   -0.1973   -3.1428 H         1 <0>         0.0940
     46 H13        -0.2764   -1.4472   -1.1438 H         1 <0>         0.0873
     47 H14         1.2737   -0.5781   -1.3796 H         1 <0>         0.0967
     48 H15         1.5554   -0.9173    1.7599 H         1 <0>         0.4203
     49 H16        -2.0865   -3.7338    6.4918 H         1 <0>         0.0924
     50 H17        -2.2473   -5.0059    5.2493 H         1 <0>         0.1057
     51 H18         1.1427   -5.4089    7.7006 H         1 <0>         0.1005
     52 H19         0.3922   -3.7954    7.6806 H         1 <0>         0.0770
     53 H20         1.8964   -5.1836    5.4267 H         1 <0>         0.0828
     54 H21         2.3166   -3.6585    6.2447 H         1 <0>         0.0887
     55 H22        -2.9024   -6.2949    6.0194 H         1 <0>         0.0810
     56 H23        -2.1469   -7.8642    5.6522 H         1 <0>         0.0968
     57 H24        -2.7907   -7.5457    7.2808 H         1 <0>         0.0983
     58 H25         2.9473   -4.0005    2.4556 H         1 <0>         0.4036
     59 H26         4.3493   -3.1693    2.8632 H         1 <0>         0.4039
@<TRIPOS>BOND
     1    1    2 1
     2    1   35 1
     3    1   36 1
     4    1   37 1
     5    2    7 ar
     6    2    3 ar
     7    3    4 ar
     8    3   38 1
     9    4    5 ar
    10    4   39 1
    11    5    6 ar
    12    5    8 1
    13    6    7 ar
    14    6   40 1
    15    7   41 1
    16    8    9 2
    17    8   10 2
    18    8   11 1
    19   11   15 1
    20   11   12 1
    21   12   13 1
    22   12   42 1
    23   12   43 1
    24   13   14 1
    25   13   44 1
    26   13   45 1
    27   14   15 1
    28   14   46 1
    29   14   47 1
    30   15   16 1
    31   15   17 1
    32   17   18 2
    33   17   19 am
    34   19   20 1
    35   19   48 1
    36   20   24 1
    37   20   21 2
    38   21   22 1
    39   21   32 1
    40   22   28 1
    41   22   23 2
    42   23   24 1
    43   23   25 1
    44   25   26 1
    45   25   49 1
    46   25   50 1
    47   26   27 1
    48   26   29 am
    49   27   28 1
    50   27   51 1
    51   27   52 1
    52   28   53 1
    53   28   54 1
    54   29   30 2
    55   29   31 1
    56   31   55 1
    57   31   56 1
    58   31   57 1
    59   32   33 2
    60   32   34 am
    61   34   58 1
    62   34   59 1
@<TRIPOS>MOLECULE
ZINC11268820
   57    61     0     0     0
SMALL
USER_CHARGES
2-(dioxoBLAHyl)-N-(8-methyl-2,4-dioxo-1,3-diazaspiro[4.5]dec-3-yl)-acetamide
@<TRIPOS>ATOM
      1 C1          1.8846  -11.3767   -4.2029 C.3       1 <0>        -0.1490
      2 C2          1.6226   -9.9112   -4.5559 C.3       1 <0>        -0.0977
      3 C3          1.9242   -9.0323   -3.3403 C.3       1 <0>        -0.1117
      4 C4          1.6722   -7.5653   -3.6980 C.3       1 <0>        -0.1164
      5 C5          0.2198   -7.3877   -4.1270 C.3       1 <0>         0.1394
      6 C6         -0.1011   -8.2744   -5.3253 C.3       1 <0>        -0.1156
      7 C7          0.1575   -9.7389   -4.9619 C.3       1 <0>        -0.1123
      8 C8         -0.0648   -5.9403   -4.4553 C.2       1 <0>         0.5326
      9 O1          0.4536   -5.2684   -5.3211 O.2       1 <0>        -0.4451
     10 N1         -1.0157   -5.5527   -3.5802 N.am      1 <0>        -0.3768
     11 C9         -1.3682   -6.5510   -2.7610 C.2       1 <0>         0.7059
     12 O2         -2.2091   -6.4455   -1.8899 O.2       1 <0>        -0.5198
     13 N2         -0.6861   -7.6851   -3.0102 N.am      1 <0>        -0.7071
     14 N3         -1.5697   -4.2665   -3.5379 N.am      1 <0>        -0.5017
     15 C10        -1.2168   -3.4127   -2.5567 C.2       1 <0>         0.5088
     16 O3         -0.4196   -3.7577   -1.7103 O.2       1 <0>        -0.4968
     17 C11        -1.8127   -2.0293   -2.5112 C.3       1 <0>         0.1139
     18 N4         -1.2728   -1.3026   -1.3594 N.am      1 <0>        -0.5647
     19 C12        -0.1555   -0.5443   -1.3954 C.2       1 <0>         0.5450
     20 O4          0.5659   -0.3415   -2.3484 O.2       1 <0>        -0.4456
     21 C13         0.0021   -0.0041    0.0020 C.3       1 <0>         0.1688
     22 C14        -0.0187    1.5298    0.0105 C.3       1 <0>        -0.1100
     23 C15         1.4874    1.8763   -0.0021 C.3       1 <0>        -0.0839
     24 C16         2.1766    0.6759    0.6128 C.ar      1 <0>        -0.0692
     25 C17         1.3171   -0.4104    0.6101 C.ar      1 <0>        -0.1169
     26 C18         1.7437   -1.6237    1.1239 C.ar      1 <0>        -0.0744
     27 C19         3.0183   -1.7532    1.6396 C.ar      1 <0>        -0.1221
     28 C20         3.8743   -0.6681    1.6439 C.ar      1 <0>        -0.0978
     29 C21         3.4530    0.5432    1.1309 C.ar      1 <0>        -0.1103
     30 N5         -1.1326   -0.5576    0.7417 N.am      1 <0>        -0.7103
     31 C22        -1.8256   -1.3073   -0.1393 C.2       1 <0>         0.7081
     32 O5         -2.8378   -1.9185    0.1421 O.2       1 <0>        -0.5287
     33 H1          1.2420  -11.6710   -3.3731 H         1 <0>         0.0556
     34 H2          1.6698  -12.0030   -5.0687 H         1 <0>         0.0575
     35 H3          2.9287  -11.5000   -3.9153 H         1 <0>         0.0574
     36 H4          2.2658   -9.6170   -5.3853 H         1 <0>         0.0777
     37 H5          2.9664   -9.1614   -3.0481 H         1 <0>         0.0779
     38 H6          1.2761   -9.3214   -2.5130 H         1 <0>         0.0665
     39 H7          2.3308   -7.2724   -4.5156 H         1 <0>         0.0930
     40 H8          1.8730   -6.9398   -2.8282 H         1 <0>         0.0782
     41 H9         -1.1481   -8.1479   -5.6006 H         1 <0>         0.0780
     42 H10         0.5321   -7.9916   -6.1662 H         1 <0>         0.0937
     43 H11        -0.0576  -10.3707   -5.8236 H         1 <0>         0.0781
     44 H12        -0.4862  -10.0263   -4.1305 H         1 <0>         0.0667
     45 H13        -0.7754   -8.5311   -2.5440 H         1 <0>         0.4440
     46 H14        -2.2073   -3.9906   -4.2148 H         1 <0>         0.4299
     47 H15        -2.8963   -2.1033   -2.4187 H         1 <0>         0.1414
     48 H16        -1.5619   -1.4953   -3.4277 H         1 <0>         0.1383
     49 H17        -0.5134    1.9162   -0.8807 H         1 <0>         0.0917
     50 H18        -0.4962    1.9065    0.9150 H         1 <0>         0.1001
     51 H19         1.8321    2.0272   -1.0250 H         1 <0>         0.0945
     52 H20         1.6752    2.7677    0.5964 H         1 <0>         0.0900
     53 H21         1.0761   -2.4726    1.1217 H         1 <0>         0.1210
     54 H22         3.3459   -2.7016    2.0389 H         1 <0>         0.1288
     55 H23         4.8710   -0.7671    2.0480 H         1 <0>         0.1299
     56 H24         4.1228    1.3905    1.1338 H         1 <0>         0.1274
     57 H25        -1.3436   -0.4144    1.6776 H         1 <0>         0.4442
@<TRIPOS>BOND
     1    1    2 1
     2    1   33 1
     3    1   34 1
     4    1   35 1
     5    2    7 1
     6    2    3 1
     7    2   36 1
     8    3    4 1
     9    3   37 1
    10    3   38 1
    11    4    5 1
    12    4   39 1
    13    4   40 1
    14    5   13 1
    15    5    6 1
    16    5    8 1
    17    6    7 1
    18    6   41 1
    19    6   42 1
    20    7   43 1
    21    7   44 1
    22    8    9 2
    23    8   10 am
    24   10   11 am
    25   10   14 1
    26   11   12 2
    27   11   13 am
    28   13   45 1
    29   14   15 am
    30   14   46 1
    31   15   16 2
    32   15   17 1
    33   17   18 1
    34   17   47 1
    35   17   48 1
    36   18   31 am
    37   18   19 am
    38   19   20 2
    39   19   21 1
    40   21   25 1
    41   21   22 1
    42   21   30 1
    43   22   23 1
    44   22   49 1
    45   22   50 1
    46   23   24 1
    47   23   51 1
    48   23   52 1
    49   24   29 ar
    50   24   25 ar
    51   25   26 ar
    52   26   27 ar
    53   26   53 1
    54   27   28 ar
    55   27   54 1
    56   28   29 ar
    57   28   55 1
    58   29   56 1
    59   30   31 am
    60   30   57 1
    61   31   32 2
@<TRIPOS>MOLECULE
ZINC12246032
   54    57     0     0     0
SMALL
USER_CHARGES
5-acetyl-N-[[5-methyl-2-[3-[(2-methylfuran-3-carbonyl)amino]phenyl]oxazol-4-yl]methyl]-2H-pyrazole-3-carboxamide
@<TRIPOS>ATOM
      1 C1          2.6737    4.4568   -2.2983 C.3       1 <0>        -0.0883
      2 C2          2.3810    3.2801   -1.4034 C.2       1 <0>         0.0939
      3 C3          1.2197    3.0666   -0.7199 C.2       1 <0>        -0.2576
      4 C4          1.4134    1.8017    0.0041 C.2       1 <0>        -0.1910
      5 C5          2.6497    1.3838   -0.3079 C.2       1 <0>        -0.0303
      6 O1          3.2152    2.2686   -1.1438 O.3       1 <0>        -0.1726
      7 C6          0.0236    3.9271   -0.7052 C.2       1 <0>         0.5947
      8 O2          0.0067    4.9559   -1.3537 O.2       1 <0>        -0.5183
      9 N1         -1.0516    3.5741    0.0267 N.am      1 <0>        -0.6675
     10 C7         -2.1435    4.4425    0.1295 C.ar      1 <0>         0.1490
     11 C8         -3.4321    3.9304    0.2272 C.ar      1 <0>        -0.1227
     12 C9         -4.5136    4.7841    0.3348 C.ar      1 <0>        -0.0981
     13 C10        -4.3224    6.1510    0.3344 C.ar      1 <0>        -0.0839
     14 C11        -3.0330    6.6753    0.2309 C.ar      1 <0>        -0.0027
     15 C12        -1.9410    5.8137    0.1281 C.ar      1 <0>        -0.0908
     16 C13        -2.8254    8.1391    0.2297 C.2       1 <0>         0.2407
     17 N2         -3.7687    9.0467    0.3203 N.2       1 <0>        -0.4534
     18 C14        -3.2000   10.2613    0.2855 C.2       1 <0>        -0.0401
     19 C15        -1.8703   10.0907    0.1702 C.2       1 <0>        -0.0100
     20 O3         -1.6382    8.7634    0.1414 O.3       1 <0>        -0.1864
     21 C16        -0.8329   11.1811    0.0941 C.3       1 <0>        -0.0764
     22 C17        -3.9219   11.5819    0.3626 C.3       1 <0>         0.2084
     23 N3         -4.0383   11.9937    1.7637 N.am      1 <0>        -0.7222
     24 C18        -4.6522   13.1519    2.0769 C.2       1 <0>         0.5951
     25 O4         -5.1095   13.8553    1.1963 O.2       1 <0>        -0.5079
     26 C19        -4.7692   13.5657    3.4849 C.2       1 <0>        -0.0418
     27 C20        -5.3618   14.7077    3.9541 C.2       1 <0>        -0.0937
     28 C21        -5.2218   14.6549    5.3577 C.2       1 <0>        -0.0558
     29 N4         -4.5818   13.5356    5.6491 N.2       1 <0>        -0.2057
     30 N5         -4.3122   12.8807    4.5774 N.pl3     1 <0>        -0.3653
     31 H1         -3.8385   12.0006    4.5463 H         1 <0>         0.4553
     32 C22        -5.6997   15.6601    6.3188 C.2       1 <0>         0.4412
     33 O5         -6.2766   16.6508    5.9236 O.2       1 <0>        -0.4448
     34 C23        -5.4724   15.4591    7.7950 C.3       1 <0>        -0.1825
     35 H2          3.1222    5.2576   -1.7104 H         1 <0>         0.0922
     36 H3          3.3646    4.1524   -3.0844 H         1 <0>         0.0822
     37 H4          1.7459    4.8114   -2.7473 H         1 <0>         0.1096
     38 H5          0.7053    1.3094    0.6542 H         1 <0>         0.1585
     39 H6          3.1155    0.4798    0.0557 H         1 <0>         0.2111
     40 H7         -1.0683    2.7179    0.4823 H         1 <0>         0.4140
     41 H8         -3.5882    2.8617    0.2236 H         1 <0>         0.1337
     42 H9         -5.5121    4.3803    0.4150 H         1 <0>         0.1395
     43 H10        -5.1706    6.8150    0.4137 H         1 <0>         0.1409
     44 H11        -0.9410    6.2136    0.0474 H         1 <0>         0.1438
     45 H12        -0.4955   11.4324    1.0997 H         1 <0>         0.0892
     46 H13         0.0147   10.8355   -0.4977 H         1 <0>         0.0859
     47 H14        -1.2674   12.0640   -0.3746 H         1 <0>         0.0976
     48 H15        -3.3622   12.3349   -0.1921 H         1 <0>         0.0937
     49 H16        -4.9172   11.4776   -0.0694 H         1 <0>         0.0945
     50 H17        -3.6736   11.4327    2.4660 H         1 <0>         0.3968
     51 H18        -5.8357   15.4848    3.3728 H         1 <0>         0.1765
     52 H19        -4.5983   15.8685    8.0564 H         1 <0>         0.0897
     53 H20        -6.2780   15.9343    8.3547 H         1 <0>         0.0911
     54 H21        -5.4552   14.3923    8.0180 H         1 <0>         0.0910
@<TRIPOS>BOND
     1    1    2 1
     2    1   35 1
     3    1   36 1
     4    1   37 1
     5    2    6 1
     6    2    3 2
     7    3    4 1
     8    3    7 1
     9    4    5 2
    10    4   38 1
    11    5    6 1
    12    5   39 1
    13    7    8 2
    14    7    9 am
    15    9   10 1
    16    9   40 1
    17   10   15 ar
    18   10   11 ar
    19   11   12 ar
    20   11   41 1
    21   12   13 ar
    22   12   42 1
    23   13   14 ar
    24   13   43 1
    25   14   15 ar
    26   14   16 1
    27   15   44 1
    28   16   20 1
    29   16   17 2
    30   17   18 1
    31   18   19 2
    32   18   22 1
    33   19   20 1
    34   19   21 1
    35   21   45 1
    36   21   46 1
    37   21   47 1
    38   22   23 1
    39   22   48 1
    40   22   49 1
    41   23   24 am
    42   23   50 1
    43   24   25 2
    44   24   26 1
    45   26   30 1
    46   26   27 2
    47   27   28 1
    48   27   51 1
    49   28   29 2
    50   28   32 1
    51   29   30 1
    52   30   31 1
    53   32   33 2
    54   32   34 1
    55   34   52 1
    56   34   53 1
    57   34   54 1
@<TRIPOS>MOLECULE
ZINC20530343
   49    52     0     0     0
SMALL
USER_CHARGES
N-(1,3-benzodioxol-5-ylmethyl)-3-[(2-oxo-1H-quinolin-6-yl)sulfonylamino]propanamide
@<TRIPOS>ATOM
      1 C1         -0.0126    1.0758    0.0080 C.ar      1 <0>        -0.0884
      2 C2          1.1763    1.7820    0.0004 C.ar      1 <0>        -0.1014
      3 C3          1.1600    3.1669    0.0080 C.ar      1 <0>         0.0411
      4 C4         -0.0566    3.8454    0.0228 C.ar      1 <0>         0.0318
      5 C5         -1.2435    3.1316    0.0302 C.ar      1 <0>        -0.0823
      6 C6         -1.2196    1.7490    0.0173 C.ar      1 <0>        -0.1004
      7 C7         -2.5124    0.9746    0.0197 C.3       1 <0>         0.1670
      8 N1         -2.9245    0.7166    1.4017 N.am      1 <0>        -0.7380
      9 C8         -4.0601    0.0344    1.6500 C.2       1 <0>         0.5174
     10 O1         -4.7407   -0.3659    0.7295 O.2       1 <0>        -0.5404
     11 C9         -4.4840   -0.2310    3.0716 C.3       1 <0>        -0.1470
     12 C10        -5.7966   -1.0172    3.0740 C.3       1 <0>         0.1285
     13 N2         -6.2087   -1.2752    4.4560 N.pl3     1 <0>        -1.1234
     14 S1         -7.7551   -1.7714    4.7799 S.o2      1 <0>         2.6984
     15 O2         -7.8348   -1.9603    6.1861 O.2       1 <0>        -0.9552
     16 O3         -8.6202   -0.8880    4.0796 O.2       1 <0>        -0.9512
     17 C11        -7.9568   -3.3606    4.0461 C.ar      1 <0>        -0.7169
     18 C12        -7.6553   -4.5003    4.7795 C.ar      1 <0>         0.0245
     19 C13        -7.8056   -5.7532    4.2257 C.ar      1 <0>        -0.1813
     20 C14        -8.2640   -5.8795    2.9183 C.ar      1 <0>         0.2414
     21 C15        -8.5686   -4.7218    2.1780 C.ar      1 <0>        -0.1568
     22 C16        -8.4137   -3.4605    2.7627 C.ar      1 <0>         0.0527
     23 C17        -9.0504   -4.8652    0.8029 C.2       1 <0>        -0.0122
     24 C18        -9.1861   -6.1134    0.2909 C.2       1 <0>        -0.2163
     25 C19        -8.8667   -7.2422    1.0757 C.2       1 <0>         0.5371
     26 O4         -8.9959   -8.3552    0.5960 O.2       1 <0>        -0.5309
     27 N3         -8.4241   -7.1204    2.3395 N.am      1 <0>        -0.6446
     28 H1         -8.1887   -8.0292    2.9128 H         1 <0>         0.4459
     29 O5          0.1925    5.1874    0.0279 O.3       1 <0>        -0.3092
     30 C20         1.5615    5.3259   -0.3963 C.3       1 <0>         0.2085
     31 O6          2.1709    4.0841    0.0037 O.3       1 <0>        -0.3035
     32 H2          0.0021   -0.0041    0.0020 H         1 <0>         0.1409
     33 H3          2.1180    1.2533   -0.0111 H         1 <0>         0.1392
     34 H4         -2.1881    3.6550    0.0417 H         1 <0>         0.1380
     35 H5         -3.2910    1.5593   -0.4920 H         1 <0>         0.0796
     36 H6         -2.3680    0.0184   -0.5045 H         1 <0>         0.0814
     37 H7         -2.3071    1.0796    2.2366 H         1 <0>         0.4254
     38 H8         -3.7054   -0.8157    3.5833 H         1 <0>         0.1033
     39 H9         -4.6283    0.7252    3.5958 H         1 <0>         0.1075
     40 H10        -6.5752   -0.4324    2.5623 H         1 <0>         0.0938
     41 H11        -5.6522   -1.9734    2.5498 H         1 <0>         0.0703
     42 H12        -5.4568   -1.3006    5.2585 H         1 <0>         0.4427
     43 H13        -7.2996   -4.4039    5.7947 H         1 <0>         0.1493
     44 H14        -7.5680   -6.6336    4.8043 H         1 <0>         0.1448
     45 H15        -8.6502   -2.5693    2.2003 H         1 <0>         0.1533
     46 H16        -9.2921   -3.9959    0.2093 H         1 <0>         0.1524
     47 H17        -9.5394   -6.2444   -0.7212 H         1 <0>         0.1587
     48 H18         1.5945    5.4743   -1.4857 H         1 <0>         0.0883
     49 H19         2.0150    6.1932    0.1058 H         1 <0>         0.1364
@<TRIPOS>BOND
     1    1    6 ar
     2    1    2 ar
     3    1   32 1
     4    2    3 ar
     5    2   33 1
     6    3   31 1
     7    3    4 ar
     8    4    5 ar
     9    4   29 1
    10    5    6 ar
    11    5   34 1
    12    6    7 1
    13    7    8 1
    14    7   35 1
    15    7   36 1
    16    8    9 am
    17    8   37 1
    18    9   10 2
    19    9   11 1
    20   11   12 1
    21   11   38 1
    22   11   39 1
    23   12   13 1
    24   12   40 1
    25   12   41 1
    26   13   14 1
    27   13   42 1
    28   14   15 2
    29   14   16 2
    30   14   17 1
    31   17   22 ar
    32   17   18 ar
    33   18   19 ar
    34   18   43 1
    35   19   20 ar
    36   19   44 1
    37   20   27 1
    38   20   21 ar
    39   21   22 ar
    40   21   23 1
    41   22   45 1
    42   23   24 2
    43   23   46 1
    44   24   25 1
    45   24   47 1
    46   25   26 2
    47   25   27 am
    48   27   28 1
    49   29   30 1
    50   30   31 1
    51   30   48 1
    52   30   49 1
@<TRIPOS>MOLECULE
ZINC23557088
   65    68     0     0     0
SMALL
USER_CHARGES

@<TRIPOS>ATOM
      1 C1         -0.0612    1.6489    0.4984 C.3       1 <0>        -0.1474
      2 C2         -0.0460    0.1320    0.2995 C.3       1 <0>        -0.0924
      3 H1         -1.0684   -0.2458    0.3065 H         1 <0>         0.0760
      4 C3          0.6119   -0.2004   -1.0423 C.3       1 <0>        -0.1096
      5 C4          0.6464   -1.7129   -1.2320 C.3       1 <0>         0.1313
      6 C5          1.4170   -2.3814   -0.0988 C.3       1 <0>        -0.1048
      7 C6          0.7561   -2.0411    1.2396 C.3       1 <0>        -0.0599
      8 C7          0.7478   -0.5232    1.4315 C.3       1 <0>        -0.1088
      9 C8         -0.6818   -2.5639    1.2461 C.3       1 <0>        -0.1616
     10 C9          1.5423   -2.6951    2.3776 C.3       1 <0>        -0.1414
     11 C10         1.2613   -2.0635   -2.5673 C.2       1 <0>         0.5371
     12 O1          2.3854   -1.8131   -2.9461 O.2       1 <0>        -0.4556
     13 N1          0.2959   -2.7147   -3.2486 N.am      1 <0>        -0.5641
     14 C11        -0.8291   -2.8194   -2.5307 C.2       1 <0>         0.7032
     15 O2         -1.8381   -3.3659   -2.9313 O.2       1 <0>        -0.5348
     16 N2         -0.7171   -2.2519   -1.3146 N.am      1 <0>        -0.7165
     17 C12         0.4584   -3.2414   -4.6060 C.3       1 <0>         0.1134
     18 C13         0.9704   -4.6571   -4.5375 C.2       1 <0>         0.5094
     19 O3          1.1790   -5.1751   -3.4609 O.2       1 <0>        -0.4980
     20 N3          1.1966   -5.3476   -5.6726 N.am      1 <0>        -0.5018
     21 N4          1.6726   -6.6637   -5.6089 N.am      1 <0>        -0.3772
     22 C14         2.9445   -7.0238   -5.8782 C.2       1 <0>         0.5341
     23 O4          3.8582   -6.2989   -6.2088 O.2       1 <0>        -0.4392
     24 C15         2.9903   -8.5217   -5.6805 C.3       1 <0>         0.1373
     25 C16         3.9734   -8.8813   -4.5719 C.3       1 <0>        -0.1147
     26 C17         5.3877   -8.4696   -4.9893 C.3       1 <0>        -0.1240
     27 C18         5.7662   -9.1916   -6.2842 C.3       1 <0>        -0.0899
     28 C19         4.7842   -8.8055   -7.3921 C.3       1 <0>        -0.1242
     29 C20         3.3677   -9.2182   -6.9833 C.3       1 <0>        -0.1131
     30 C21         7.1835   -8.7890   -6.6965 C.3       1 <0>        -0.1483
     31 N5          1.6196   -8.8717   -5.2873 N.am      1 <0>        -0.7123
     32 C22         0.9231   -7.7192   -5.2677 C.2       1 <0>         0.7056
     33 O5         -0.2546   -7.6460   -4.9764 O.2       1 <0>        -0.5196
     34 H2          0.9613    2.0265    0.4914 H         1 <0>         0.0585
     35 H3         -0.6264    2.1156   -0.3083 H         1 <0>         0.0570
     36 H4         -0.5293    1.8854    1.4540 H         1 <0>         0.0597
     37 H5          0.0385    0.2540   -1.8504 H         1 <0>         0.0763
     38 H6          1.6293    0.1906   -1.0547 H         1 <0>         0.0920
     39 H7          1.4102   -3.4618   -0.2429 H         1 <0>         0.0786
     40 H8          2.4459   -2.0218   -0.0976 H         1 <0>         0.0905
     41 H9          1.7720   -0.1503    1.4199 H         1 <0>         0.0708
     42 H10         0.2842   -0.2806    2.3877 H         1 <0>         0.0715
     43 H11        -0.7387   -3.4781    0.6553 H         1 <0>         0.0659
     44 H12        -0.9872   -2.7742    2.2711 H         1 <0>         0.0658
     45 H13        -1.3437   -1.8119    0.8168 H         1 <0>         0.0620
     46 H14         2.5665   -2.3220    2.3730 H         1 <0>         0.0586
     47 H15         1.0717   -2.4527    3.3304 H         1 <0>         0.0607
     48 H16         1.5488   -3.7764    2.2403 H         1 <0>         0.0578
     49 H17        -1.4018   -2.2077   -0.6289 H         1 <0>         0.4432
     50 H18        -0.5033   -3.2273   -5.1188 H         1 <0>         0.1399
     51 H19         1.1708   -2.6235   -5.1526 H         1 <0>         0.1371
     52 H20         1.0298   -4.9333   -6.5337 H         1 <0>         0.4298
     53 H21         3.6974   -8.3565   -3.6573 H         1 <0>         0.0764
     54 H22         3.9451   -9.9566   -4.3961 H         1 <0>         0.0916
     55 H23         5.4198   -7.3922   -5.1511 H         1 <0>         0.0805
     56 H24         6.0921   -8.7405   -4.2029 H         1 <0>         0.0754
     57 H25         5.7273  -10.2690   -6.1238 H         1 <0>         0.0728
     58 H26         4.8179   -7.7273   -7.5482 H         1 <0>         0.0810
     59 H27         5.0592   -9.3154   -8.3154 H         1 <0>         0.0758
     60 H28         3.3307  -10.2983   -6.8417 H         1 <0>         0.0916
     61 H29         2.6655   -8.9303   -7.7657 H         1 <0>         0.0764
     62 H30         7.8836   -9.0656   -5.9081 H         1 <0>         0.0559
     63 H31         7.4535   -9.3032   -7.6189 H         1 <0>         0.0561
     64 H32         7.2233   -7.7115   -6.8561 H         1 <0>         0.0575
     65 H33         1.2832   -9.7574   -5.0791 H         1 <0>         0.4450
@<TRIPOS>BOND
     1    1    2 1
     2    1   34 1
     3    1   35 1
     4    1   36 1
     5    2    3 1
     6    2    8 1
     7    2    4 1
     8    4    5 1
     9    4   37 1
    10    4   38 1
    11    5   16 1
    12    5    6 1
    13    5   11 1
    14    6    7 1
    15    6   39 1
    16    6   40 1
    17    7    8 1
    18    7    9 1
    19    7   10 1
    20    8   41 1
    21    8   42 1
    22    9   43 1
    23    9   44 1
    24    9   45 1
    25   10   46 1
    26   10   47 1
    27   10   48 1
    28   11   12 2
    29   11   13 am
    30   13   14 am
    31   13   17 1
    32   14   15 2
    33   14   16 am
    34   16   49 1
    35   17   18 1
    36   17   50 1
    37   17   51 1
    38   18   19 2
    39   18   20 am
    40   20   21 1
    41   20   52 1
    42   21   32 am
    43   21   22 am
    44   22   23 2
    45   22   24 1
    46   24   29 1
    47   24   25 1
    48   24   31 1
    49   25   26 1
    50   25   53 1
    51   25   54 1
    52   26   27 1
    53   26   55 1
    54   26   56 1
    55   27   28 1
    56   27   30 1
    57   27   57 1
    58   28   29 1
    59   28   58 1
    60   28   59 1
    61   29   60 1
    62   29   61 1
    63   30   62 1
    64   30   63 1
    65   30   64 1
    66   31   32 am
    67   31   65 1
    68   32   33 2
@<TRIPOS>MOLECULE
ZINC12854445
   66    69     0     0     0
SMALL
USER_CHARGES

@<TRIPOS>ATOM
      1 C1          1.8465   -2.3196    2.5877 C.3       1 <0>        -0.1496
      2 C2          2.1140   -1.0613    1.7595 C.3       1 <0>        -0.1155
      3 C3          3.0703   -1.3987    0.6137 C.3       1 <0>        -0.1464
      4 C4          0.7955   -0.5383    1.1860 C.3       1 <0>         0.1106
      5 N1         -0.0632   -0.0760    2.2792 N.am      1 <0>        -0.5108
      6 C5         -0.9589   -0.9721    2.9001 C.2       1 <0>        -0.1574
      7 C6         -0.8055   -1.3093    4.2294 C.2       1 <0>         0.5062
      8 N2         -1.6947   -2.1857    4.8067 N.am      1 <0>        -0.5338
      9 C7         -2.7018   -2.7084    4.0840 C.2       1 <0>         0.7136
     10 O1         -3.4772   -3.4817    4.6127 O.2       1 <0>        -0.5307
     11 N3         -2.8672   -2.3910    2.7877 N.am      1 <0>        -0.6587
     12 H1         -3.6016   -2.7812    2.2884 H         1 <0>         0.4336
     13 C8         -2.0275   -1.5329    2.1759 C.2       1 <0>         0.5679
     14 O2         -2.1893   -1.2482    1.0013 O.2       1 <0>        -0.5205
     15 C9         -1.5438   -2.5526    6.2170 C.3       1 <0>         0.1493
     16 C10        -2.3242   -1.5886    7.0731 C.ar      1 <0>        -0.1294
     17 C11        -1.7213   -0.4364    7.5420 C.ar      1 <0>        -0.0965
     18 C12        -2.4372    0.4478    8.3273 C.ar      1 <0>        -0.1197
     19 C13        -3.7560    0.1800    8.6432 C.ar      1 <0>        -0.1037
     20 C14        -4.3591   -0.9718    8.1735 C.ar      1 <0>        -0.1216
     21 C15        -3.6446   -1.8539    7.3847 C.ar      1 <0>        -0.0861
     22 N4          0.2239   -0.7762    4.9676 N.pl3     1 <0>        -0.8186
     23 C16         0.0024    1.2070    2.6923 C.2       1 <0>         0.4952
     24 O3         -0.6492    1.5703    3.6491 O.2       1 <0>        -0.5161
     25 C17         0.8850    2.1885    1.9652 C.3       1 <0>         0.0826
     26 N5          0.8738    3.4718    2.6718 N.am      1 <0>        -0.5784
     27 C18        -0.0243    4.4599    2.4110 C.2       1 <0>         0.5492
     28 O4         -0.7755    4.5315    1.4622 O.2       1 <0>        -0.4612
     29 C19         0.1036    5.4394    3.5337 C.3       1 <0>        -0.1287
     30 H2         -0.5091    5.1188    4.3762 H         1 <0>         0.1252
     31 C20        -0.1143    6.9109    3.2722 C.3       1 <0>        -0.0979
     32 C21         0.1445    7.6403    4.6035 C.3       1 <0>        -0.1213
     33 C22         1.5331    7.3447    5.1595 C.3       1 <0>        -0.1204
     34 C23         1.7987    5.8296    5.2664 C.3       1 <0>        -0.0974
     35 C24         1.6125    5.2630    3.8788 C.3       1 <0>        -0.1306
     36 H3          2.2247    5.8223    3.1713 H         1 <0>         0.1261
     37 C25         1.7569    3.7895    3.6568 C.2       1 <0>         0.5497
     38 O5          2.5082    3.0337    4.2346 O.2       1 <0>        -0.4677
     39 H4          1.2896   -3.0386    1.9868 H         1 <0>         0.0557
     40 H5          2.7947   -2.7604    2.8955 H         1 <0>         0.0556
     41 H6          1.2645   -2.0563    3.4710 H         1 <0>         0.0549
     42 H7          2.5627   -0.2972    2.3942 H         1 <0>         0.0707
     43 H8          2.6216   -2.1628   -0.0209 H         1 <0>         0.0599
     44 H9          3.2609   -0.5022    0.0237 H         1 <0>         0.0580
     45 H10         4.0096   -1.7712    1.0223 H         1 <0>         0.0606
     46 H11         0.9977    0.2904    0.5075 H         1 <0>         0.0827
     47 H12         0.2928   -1.3385    0.6427 H         1 <0>         0.0943
     48 H13        -1.9209   -3.5635    6.3719 H         1 <0>         0.1225
     49 H14        -0.4899   -2.5118    6.4923 H         1 <0>         0.0989
     50 H15        -0.6909   -0.2272    7.2952 H         1 <0>         0.1160
     51 H16        -1.9660    1.3476    8.6942 H         1 <0>         0.1250
     52 H17        -4.3151    0.8704    9.2573 H         1 <0>         0.1254
     53 H18        -5.3894   -1.1811    8.4207 H         1 <0>         0.1267
     54 H19        -4.1169   -2.7518    7.0147 H         1 <0>         0.1327
     55 H20         0.8102   -0.1117    4.5731 H         1 <0>         0.4245
     56 H21         0.3641   -1.0644    5.8831 H         1 <0>         0.4048
     57 H22         1.9038    1.8029    1.9284 H         1 <0>         0.1212
     58 H23         0.5129    2.3292    0.9504 H         1 <0>         0.1288
     59 H24         0.5842    7.2621    2.5127 H         1 <0>         0.0752
     60 H25        -1.1397    7.0837    2.9456 H         1 <0>         0.0820
     61 H26         0.0485    8.7142    4.4432 H         1 <0>         0.0728
     62 H27        -0.6029    7.3245    5.3313 H         1 <0>         0.0658
     63 H28         2.2805    7.7905    4.5032 H         1 <0>         0.0666
     64 H29         1.6212    7.7911    6.1500 H         1 <0>         0.0725
     65 H30         2.8175    5.6512    5.6103 H         1 <0>         0.0816
     66 H31         1.0851    5.3715    5.9513 H         1 <0>         0.0741
@<TRIPOS>BOND
     1    1    2 1
     2    1   39 1
     3    1   40 1
     4    1   41 1
     5    2    3 1
     6    2    4 1
     7    2   42 1
     8    3   43 1
     9    3   44 1
    10    3   45 1
    11    4    5 1
    12    4   46 1
    13    4   47 1
    14    5    6 1
    15    5   23 am
    16    6   13 1
    17    6    7 2
    18    7    8 1
    19    7   22 1
    20    8    9 am
    21    8   15 1
    22    9   10 2
    23    9   11 am
    24   11   12 1
    25   11   13 am
    26   13   14 2
    27   15   16 1
    28   15   48 1
    29   15   49 1
    30   16   21 ar
    31   16   17 ar
    32   17   18 ar
    33   17   50 1
    34   18   19 ar
    35   18   51 1
    36   19   20 ar
    37   19   52 1
    38   20   21 ar
    39   20   53 1
    40   21   54 1
    41   22   55 1
    42   22   56 1
    43   23   24 2
    44   23   25 1
    45   25   26 1
    46   25   57 1
    47   25   58 1
    48   26   37 am
    49   26   27 am
    50   27   28 2
    51   27   29 1
    52   29   30 1
    53   29   35 1
    54   29   31 1
    55   31   32 1
    56   31   59 1
    57   31   60 1
    58   32   33 1
    59   32   61 1
    60   32   62 1
    61   33   34 1
    62   33   63 1
    63   33   64 1
    64   34   35 1
    65   34   65 1
    66   34   66 1
    67   35   36 1
    68   35   37 1
    69   37   38 2
@<TRIPOS>MOLECULE
ZINC09032269
   39    40     0     0     0
SMALL
USER_CHARGES
allophanoylmethyl 2-(4-chlorophenyl)sulfanyl-5-nitro-benzoate
@<TRIPOS>ATOM
      1 C1          1.9706    0.0745    2.6123 C.ar      1 <0>        -0.1207
      2 C2          1.7541   -0.2699    3.9318 C.ar      1 <0>        -0.0878
      3 C3          1.8226   -1.5958    4.3226 C.ar      1 <0>        -0.0386
      4 C4          2.1025   -2.5809    3.3916 C.ar      1 <0>        -0.0872
      5 C5          2.3143   -2.2432    2.0696 C.ar      1 <0>        -0.0804
      6 C6          2.2462   -0.9129    1.6743 C.ar      1 <0>        -0.0861
      7 S1          2.5158   -0.4781   -0.0118 S.3       1 <0>         0.0699
      8 C7          2.1599    1.2466   -0.0694 C.ar      1 <0>        -0.0521
      9 C8          3.1957    2.1731   -0.1123 C.ar      1 <0>        -0.0720
     10 C9          2.9144    3.5226   -0.1520 C.ar      1 <0>        -0.0259
     11 C10         1.6007    3.9667   -0.1549 C.ar      1 <0>        -0.0303
     12 C11         0.5606    3.0649   -0.1177 C.ar      1 <0>        -0.0031
     13 C12         0.8280    1.6932   -0.0772 C.ar      1 <0>        -0.0852
     14 C13        -0.2792    0.7233   -0.0368 C.2       1 <0>         0.5046
     15 O1         -0.0422   -0.4682   -0.0017 O.2       1 <0>        -0.4546
     16 O2         -1.5554    1.1566   -0.0445 O.3       1 <0>        -0.3270
     17 C14        -2.5956    0.1442   -0.0092 C.3       1 <0>         0.0553
     18 C15        -3.9467    0.8114   -0.0236 C.2       1 <0>         0.5173
     19 O3         -4.0253    2.0206   -0.0600 O.2       1 <0>        -0.4355
     20 N1         -5.0678    0.0638    0.0040 N.am      1 <0>        -0.6873
     21 C16        -6.2762    0.6605   -0.0089 C.2       1 <0>         0.6984
     22 O4         -6.3549    1.8728   -0.0454 O.2       1 <0>        -0.5274
     23 N2         -7.3973   -0.0871    0.0187 N.am      1 <0>        -0.8540
     24 N3          1.3148    5.4185   -0.1978 N.pl3     1 <0>         0.0203
     25 O5          0.1623    5.8124   -0.2001 O.2       1 <0>        -0.1377
     26 O6          2.2321    6.2191   -0.2307 O.3       1 <0>        -0.1424
     27 Cl1         1.5564   -2.0243    5.9837 Cl        1 <0>        -0.0624
     28 H1          1.9215    1.1098    2.3087 H         1 <0>         0.1224
     29 H2          1.5355    0.4967    4.6605 H         1 <0>         0.1374
     30 H3          2.1550   -3.6148    3.6994 H         1 <0>         0.1422
     31 H4          2.5323   -3.0124    1.3434 H         1 <0>         0.1403
     32 H5          4.2217    1.8358   -0.1099 H         1 <0>         0.1722
     33 H6          3.7226    4.2383   -0.1813 H         1 <0>         0.1718
     34 H7         -0.4604    3.4169   -0.1195 H         1 <0>         0.1788
     35 H8         -2.5012   -0.5042   -0.8803 H         1 <0>         0.1154
     36 H9         -2.4935   -0.4502    0.8988 H         1 <0>         0.1137
     37 H10        -5.0050   -0.9037    0.0331 H         1 <0>         0.4132
     38 H11        -7.3344   -1.0546    0.0478 H         1 <0>         0.4012
     39 H12        -8.2670    0.3424    0.0094 H         1 <0>         0.4234
@<TRIPOS>BOND
     1    1    6 ar
     2    1    2 ar
     3    1   28 1
     4    2    3 ar
     5    2   29 1
     6    3    4 ar
     7    3   27 1
     8    4    5 ar
     9    4   30 1
    10    5    6 ar
    11    5   31 1
    12    6    7 1
    13    7    8 1
    14    8   13 ar
    15    8    9 ar
    16    9   10 ar
    17    9   32 1
    18   10   11 ar
    19   10   33 1
    20   11   12 ar
    21   11   24 1
    22   12   13 ar
    23   12   34 1
    24   13   14 1
    25   14   15 2
    26   14   16 1
    27   16   17 1
    28   17   18 1
    29   17   35 1
    30   17   36 1
    31   18   19 2
    32   18   20 am
    33   20   21 am
    34   20   37 1
    35   21   22 2
    36   21   23 am
    37   23   38 1
    38   23   39 1
    39   24   25 2
    40   24   26 1
@<TRIPOS>MOLECULE
ZINC14624293
   56    58     0     0     0
SMALL
USER_CHARGES
N-(6-amino-1-butyl-2,4-dioxo-pyrimidin-5-yl)-7-chloro-N-(2-methoxyethyl)-3-methyl-benzofuran-2-carboxamide
@<TRIPOS>ATOM
      1 C1         -3.5528    2.3318    5.0903 C.3       1 <0>        -0.1540
      2 C2         -2.7729    1.3354    4.2301 C.3       1 <0>        -0.1199
      3 C3         -2.1718    2.0626    3.0256 C.3       1 <0>        -0.1410
      4 C4         -1.3919    1.0662    2.1654 C.3       1 <0>         0.1054
      5 N1         -0.8163    1.7625    1.0121 N.am      1 <0>        -0.5376
      6 C5          0.4396    2.3159    1.1046 C.2       1 <0>         0.4847
      7 C6          0.9700    2.9695    0.0108 C.2       1 <0>        -0.1432
      8 C7          0.2062    3.0496   -1.1690 C.2       1 <0>         0.5672
      9 O1          0.6506    3.6208   -2.1504 O.2       1 <0>        -0.5035
     10 N2         -1.0191    2.4902   -1.2067 N.am      1 <0>        -0.6629
     11 H1         -1.5608    2.5427   -2.0456 H         1 <0>         0.4399
     12 C8         -1.5218    1.8621   -0.1291 C.2       1 <0>         0.7124
     13 O2         -2.6324    1.3704   -0.1891 O.2       1 <0>        -0.5324
     14 N3          2.2549    3.5468    0.0739 N.am      1 <0>        -0.5138
     15 C9          3.4325    2.6949    0.2574 C.3       1 <0>         0.0978
     16 C10         3.8859    2.1523   -1.0994 C.3       1 <0>         0.0508
     17 O3          4.3267    3.2344   -1.9220 O.3       1 <0>        -0.3677
     18 C11         4.7739    2.8339   -3.2188 C.3       1 <0>         0.0370
     19 C12         2.3997    4.8824   -0.0347 C.2       1 <0>         0.6144
     20 O4          1.4172    5.5981   -0.0953 O.2       1 <0>        -0.4907
     21 C13         3.7441    5.4745   -0.0799 C.2       1 <0>        -0.0145
     22 C14         4.0125    6.8058   -0.0692 C.2       1 <0>        -0.0818
     23 C15         5.4691    6.9258   -0.1241 C.ar      1 <0>        -0.1292
     24 C16         6.3574    8.0043   -0.1400 C.ar      1 <0>        -0.0530
     25 C17         7.7025    7.7734   -0.2028 C.ar      1 <0>        -0.1303
     26 C18         8.1920    6.4752   -0.2509 C.ar      1 <0>        -0.0753
     27 C19         7.3324    5.3970   -0.2367 C.ar      1 <0>        -0.0294
     28 C20         5.9587    5.6078   -0.1727 C.ar      1 <0>         0.0783
     29 O5          4.8978    4.7777   -0.1442 O.3       1 <0>        -0.1435
     30 Cl1         7.9628    3.7807   -0.2982 Cl        1 <0>        -0.0566
     31 C21         3.0122    7.9314   -0.0096 C.3       1 <0>        -0.0962
     32 N4          1.1580    2.2187    2.2722 N.pl3     1 <0>        -0.8322
     33 H2         -2.8803    3.1161    5.4378 H         1 <0>         0.0547
     34 H3         -4.3527    2.7754    4.4974 H         1 <0>         0.0566
     35 H4         -3.9810    1.8137    5.9484 H         1 <0>         0.0586
     36 H5         -3.4453    0.5511    3.8826 H         1 <0>         0.0693
     37 H6         -1.9730    0.8918    4.8230 H         1 <0>         0.0649
     38 H7         -1.4993    2.8469    3.3731 H         1 <0>         0.0695
     39 H8         -2.9717    2.5062    2.4327 H         1 <0>         0.0783
     40 H9         -2.0643    0.2820    1.8179 H         1 <0>         0.1133
     41 H10        -0.5920    0.6226    2.7583 H         1 <0>         0.0911
     42 H11         4.2379    3.2792    0.7025 H         1 <0>         0.1106
     43 H12         3.1803    1.8633    0.9154 H         1 <0>         0.0919
     44 H13         4.7059    1.4491   -0.9539 H         1 <0>         0.0578
     45 H14         3.0526    1.6434   -1.5840 H         1 <0>         0.0504
     46 H15         5.6123    2.1449   -3.1173 H         1 <0>         0.0378
     47 H16         3.9590    2.3393   -3.7475 H         1 <0>         0.0383
     48 H17         5.0914    3.7122   -3.7809 H         1 <0>         0.0816
     49 H18         5.9822    9.0164   -0.1030 H         1 <0>         0.1357
     50 H19         8.3896    8.6065   -0.2154 H         1 <0>         0.1409
     51 H20         9.2579    6.3078   -0.3004 H         1 <0>         0.1458
     52 H21         2.8137    8.1863    1.0314 H         1 <0>         0.0762
     53 H22         3.4144    8.8026   -0.5267 H         1 <0>         0.0703
     54 H23         2.0852    7.6194   -0.4905 H         1 <0>         0.0936
     55 H24         2.0003    2.6908    2.3641 H         1 <0>         0.4244
     56 H25         0.8228    1.6778    3.0043 H         1 <0>         0.4093
@<TRIPOS>BOND
     1    1    2 1
     2    1   33 1
     3    1   34 1
     4    1   35 1
     5    2    3 1
     6    2   36 1
     7    2   37 1
     8    3    4 1
     9    3   38 1
    10    3   39 1
    11    4    5 1
    12    4   40 1
    13    4   41 1
    14    5   12 am
    15    5    6 1
    16    6    7 2
    17    6   32 1
    18    7    8 1
    19    7   14 1
    20    8    9 2
    21    8   10 am
    22   10   11 1
    23   10   12 am
    24   12   13 2
    25   14   15 1
    26   14   19 am
    27   15   16 1
    28   15   42 1
    29   15   43 1
    30   16   17 1
    31   16   44 1
    32   16   45 1
    33   17   18 1
    34   18   46 1
    35   18   47 1
    36   18   48 1
    37   19   20 2
    38   19   21 1
    39   21   29 1
    40   21   22 2
    41   22   23 1
    42   22   31 1
    43   23   28 ar
    44   23   24 ar
    45   24   25 ar
    46   24   49 1
    47   25   26 ar
    48   25   50 1
    49   26   27 ar
    50   26   51 1
    51   27   28 ar
    52   27   30 1
    53   28   29 1
    54   31   52 1
    55   31   53 1
    56   31   54 1
    57   32   55 1
    58   32   56 1
@<TRIPOS>MOLECULE
ZINC13977000
   49    51     0     0     0
SMALL
USER_CHARGES

@<TRIPOS>ATOM
      1 C1         -0.0164    1.3567    0.0095 C.ar      1 <0>        -0.1180
      2 C2          1.1685    2.0906    0.0021 C.ar      1 <0>        -0.1083
      3 C3          2.3785    1.4679   -0.0132 C.ar      1 <0>        -0.1121
      4 C4          2.4378    0.0637   -0.0214 C.ar      1 <0>        -0.0303
      5 C5          1.2328   -0.6827   -0.0134 C.ar      1 <0>        -0.0522
      6 C6          0.0021   -0.0041    0.0020 C.ar      1 <0>        -0.1008
      7 C7          1.2920   -2.0865   -0.0210 C.ar      1 <0>        -0.0955
      8 C8          2.5022   -2.7094   -0.0359 C.ar      1 <0>        -0.1172
      9 C9          3.6867   -1.9757   -0.0433 C.ar      1 <0>        -0.0927
     10 C10         3.6681   -0.6146   -0.0367 C.ar      1 <0>        -0.0696
     11 C11         4.9603    0.1606   -0.0459 C.3       1 <0>        -0.0959
     12 C12         5.3414    0.5186    1.3675 C.2       1 <0>         0.4837
     13 O1          4.6336    0.1778    2.2910 O.2       1 <0>        -0.3852
     14 N1          6.4691    1.2175    1.6049 N.am      1 <0>        -0.6483
     15 C13         6.8099    1.5376    2.8690 C.2       1 <0>         0.5130
     16 S1          5.8105    1.0565    4.1730 S.2       1 <0>        -0.4453
     17 N2          7.9376    2.2365    3.1064 N.pl3     1 <0>        -0.4574
     18 N3          8.7555    2.6303    2.0393 N.am      1 <0>        -0.5487
     19 C14         9.8832    3.3292    2.2767 C.2       1 <0>         0.5221
     20 O2         10.1899    3.6172    3.4142 O.2       1 <0>        -0.4862
     21 C15        10.7629    3.7527    1.1288 C.3       1 <0>         0.0465
     22 O3         11.8886    4.4747    1.6326 O.3       1 <0>        -0.2753
     23 C16        12.7871    4.9311    0.7209 C.ar      1 <0>         0.1805
     24 C17        12.5865    4.6939   -0.6312 C.ar      1 <0>        -0.2118
     25 C18        13.5012    5.1593   -1.5560 C.ar      1 <0>        -0.0099
     26 C19        14.6157    5.8609   -1.1351 C.ar      1 <0>        -0.0856
     27 C20        14.8182    6.0982    0.2119 C.ar      1 <0>        -0.0116
     28 C21        13.9035    5.6399    1.1403 C.ar      1 <0>        -0.1419
     29 N4         15.5941    6.3584   -2.1280 N.pl3     1 <0>         0.0368
     30 O4         15.4183    6.1511   -3.3061 O.2       1 <0>        -0.1601
     31 O5         16.5690    6.9720   -1.7611 O.3       1 <0>        -0.1568
     32 H1         -0.9634    1.8756    0.0259 H         1 <0>         0.1243
     33 H2          1.1258    3.1698    0.0084 H         1 <0>         0.1226
     34 H3          3.2883    2.0497   -0.0195 H         1 <0>         0.1184
     35 H4         -0.9241   -0.5595    0.0082 H         1 <0>         0.1286
     36 H5          0.3820   -2.6682   -0.0147 H         1 <0>         0.1290
     37 H6          2.5450   -3.7886   -0.0417 H         1 <0>         0.1262
     38 H7          4.6338   -2.4947   -0.0548 H         1 <0>         0.1228
     39 H8          5.7467   -0.4491   -0.4909 H         1 <0>         0.1119
     40 H9          4.8331    1.0722   -0.6299 H         1 <0>         0.1104
     41 H10         7.0354    1.4901    0.8661 H         1 <0>         0.4018
     42 H11         8.1829    2.4669    4.0162 H         1 <0>         0.4584
     43 H12         8.5102    2.3999    1.1295 H         1 <0>         0.4210
     44 H13        11.1086    2.8699    0.5911 H         1 <0>         0.1115
     45 H14        10.1950    4.3912    0.4521 H         1 <0>         0.1115
     46 H15        11.7163    4.1456   -0.9605 H         1 <0>         0.1521
     47 H16        13.3457    4.9746   -2.6087 H         1 <0>         0.1595
     48 H17        15.6897    6.6461    0.5383 H         1 <0>         0.1642
     49 H18        14.0598    5.8293    2.1920 H         1 <0>         0.1601
@<TRIPOS>BOND
     1    1    6 ar
     2    1    2 ar
     3    1   32 1
     4    2    3 ar
     5    2   33 1
     6    3    4 ar
     7    3   34 1
     8    4   10 ar
     9    4    5 ar
    10    5    6 ar
    11    5    7 ar
    12    6   35 1
    13    7    8 ar
    14    7   36 1
    15    8    9 ar
    16    8   37 1
    17    9   10 ar
    18    9   38 1
    19   10   11 1
    20   11   12 1
    21   11   39 1
    22   11   40 1
    23   12   13 2
    24   12   14 am
    25   14   15 1
    26   14   41 1
    27   15   16 2
    28   15   17 1
    29   17   18 1
    30   17   42 1
    31   18   19 am
    32   18   43 1
    33   19   20 2
    34   19   21 1
    35   21   22 1
    36   21   44 1
    37   21   45 1
    38   22   23 1
    39   23   28 ar
    40   23   24 ar
    41   24   25 ar
    42   24   46 1
    43   25   26 ar
    44   25   47 1
    45   26   27 ar
    46   26   29 1
    47   27   28 ar
    48   27   48 1
    49   28   49 1
    50   29   30 2
    51   29   31 1
@<TRIPOS>MOLECULE
ZINC10735703
   46    48     0     0     0
SMALL
USER_CHARGES

@<TRIPOS>ATOM
      1 C1         -0.0167    1.3792    0.0096 C.ar      1 <0>        -0.1192
      2 C2          1.1669    2.0882    0.0021 C.ar      1 <0>        -0.0363
      3 C3          2.3848    1.4069   -0.0131 C.ar      1 <0>        -0.1329
      4 C4          2.3966    0.0111   -0.0207 C.ar      1 <0>         0.0037
      5 C5          1.2062   -0.6857   -0.0130 C.ar      1 <0>        -0.0549
      6 C6          0.0021   -0.0041    0.0020 C.ar      1 <0>        -0.0289
      7 N1          1.2169   -2.1658   -0.0210 N.pl3     1 <0>         0.0309
      8 O1          2.2682   -2.7627   -0.0343 O.2       1 <0>        -0.1478
      9 O2          0.1743   -2.7779   -0.0144 O.3       1 <0>        -0.1503
     10 C7          3.6569    2.1603   -0.0217 C.2       1 <0>         0.5679
     11 O3          4.7162    1.5642   -0.0350 O.2       1 <0>        -0.5175
     12 N2          3.6421    3.5079   -0.0148 N.am      1 <0>        -0.7131
     13 C8          4.9026    4.2544   -0.0233 C.3       1 <0>         0.1119
     14 C9          4.6110    5.7329   -0.0131 C.2       1 <0>         0.5134
     15 O4          3.4632    6.1245    0.0000 O.2       1 <0>        -0.5336
     16 N3          5.6256    6.6200   -0.0185 N.am      1 <0>        -0.5101
     17 N4          5.3545    7.9944   -0.0090 N.am      1 <0>        -0.5186
     18 C10         6.3691    8.8815   -0.0144 C.2       1 <0>         0.6119
     19 O5          7.5211    8.4885   -0.0276 O.2       1 <0>        -0.5178
     20 C11         6.0857   10.3184   -0.0045 C.2       1 <0>        -0.2377
     21 C12         6.9757   11.3827   -0.0135 C.2       1 <0>        -0.0490
     22 C13         6.4773   12.6549   -0.0010 C.2       1 <0>        -0.1663
     23 C14         5.1033   12.8325    0.0202 C.2       1 <0>        -0.0701
     24 S1          4.5061   11.1501    0.0144 S.3       1 <0>         0.1204
     25 C15         4.3303   14.0917    0.0367 C.ar      1 <0>        -0.0327
     26 C16         4.9928   15.3206    0.0260 C.ar      1 <0>        -0.0594
     27 C17         4.2664   16.4927    0.0411 C.ar      1 <0>        -0.1491
     28 C18         2.8813   16.4523    0.0673 C.ar      1 <0>         0.1149
     29 C19         2.2185   15.2350    0.0785 C.ar      1 <0>        -0.1481
     30 C20         2.9347   14.0569    0.0573 C.ar      1 <0>        -0.0710
     31 F1          2.1745   17.6036    0.0824 F         1 <0>        -0.1325
     32 H1         -0.9598    1.9051    0.0260 H         1 <0>         0.1580
     33 H2          1.1509    3.1681    0.0077 H         1 <0>         0.1486
     34 H3          3.3358   -0.5221   -0.0328 H         1 <0>         0.1686
     35 H4         -0.9272   -0.5544    0.0083 H         1 <0>         0.1613
     36 H5          2.7968    3.9836   -0.0042 H         1 <0>         0.4134
     37 H6          5.4857    3.9930    0.8597 H         1 <0>         0.1150
     38 H7          5.4684    4.0019   -0.9201 H         1 <0>         0.1150
     39 H8          6.5436    6.3068   -0.0290 H         1 <0>         0.4396
     40 H9          4.4365    8.3076    0.0015 H         1 <0>         0.4330
     41 H10         8.0416   11.2090   -0.0296 H         1 <0>         0.1527
     42 H11         7.1420   13.5061   -0.0071 H         1 <0>         0.1498
     43 H12         6.0721   15.3533    0.0063 H         1 <0>         0.1413
     44 H13         4.7778   17.4439    0.0328 H         1 <0>         0.1451
     45 H14         1.1390   15.2093    0.0993 H         1 <0>         0.1444
     46 H15         2.4172   13.1089    0.0612 H         1 <0>         0.1360
@<TRIPOS>BOND
     1    1    6 ar
     2    1    2 ar
     3    1   32 1
     4    2    3 ar
     5    2   33 1
     6    3    4 ar
     7    3   10 1
     8    4    5 ar
     9    4   34 1
    10    5    6 ar
    11    5    7 1
    12    6   35 1
    13    7    8 2
    14    7    9 1
    15   10   11 2
    16   10   12 am
    17   12   13 1
    18   12   36 1
    19   13   14 1
    20   13   37 1
    21   13   38 1
    22   14   15 2
    23   14   16 am
    24   16   17 1
    25   16   39 1
    26   17   18 am
    27   17   40 1
    28   18   19 2
    29   18   20 1
    30   20   24 1
    31   20   21 2
    32   21   22 1
    33   21   41 1
    34   22   23 2
    35   22   42 1
    36   23   24 1
    37   23   25 1
    38   25   30 ar
    39   25   26 ar
    40   26   27 ar
    41   26   43 1
    42   27   28 ar
    43   27   44 1
    44   28   29 ar
    45   28   31 1
    46   29   30 ar
    47   29   45 1
    48   30   46 1
@<TRIPOS>MOLECULE
ZINC59888875
   48    49     0     0     0
SMALL
USER_CHARGES

@<TRIPOS>ATOM
      1 C1         -0.0187    1.5258    0.0104 C.3       1 <0>        -0.1481
      2 C2          0.0021   -0.0041    0.0020 C.3       1 <0>        -0.0642
      3 C3          0.7309   -0.5033    1.2229 C.2       1 <0>         0.0955
      4 N1          0.1019   -1.1719    2.1151 N.2       1 <0>        -0.2096
      5 N2          0.7795   -1.6360    3.2502 N.pl3     1 <0>        -0.5557
      6 C4          0.0997   -2.3585    4.2144 C.2       1 <0>         0.5640
      7 N3         -1.1761   -2.6814    4.1833 N.2       1 <0>        -0.5188
      8 C5         -1.4901   -3.3804    5.2794 C.2       1 <0>         0.2156
      9 N4         -0.4173   -3.5116    6.0228 N.2       1 <0>        -0.3253
     10 N5          0.6294   -2.8614    5.3495 N.pl3     1 <0>        -0.5051
     11 S1         -3.0861   -4.0208    5.6631 S.3       1 <0>         0.1241
     12 C6         -2.8531   -4.8539    7.2575 C.3       1 <0>        -0.1606
     13 C7         -4.1605   -5.4541    7.7065 C.2       1 <0>         0.5327
     14 O1         -5.1519   -5.3319    7.0185 O.2       1 <0>        -0.4453
     15 N6         -4.2280   -6.1267    8.8724 N.am      1 <0>        -0.6069
     16 C8         -5.4363   -6.6814    9.2874 C.2       1 <0>         0.2803
     17 N7         -6.6215   -6.6741    8.6998 N.2       1 <0>        -0.2670
     18 N8         -7.6276   -7.2317    9.2171 N.2       1 <0>        -0.2583
     19 C9         -7.5590   -7.8596   10.3818 C.2       1 <0>         0.0164
     20 S2         -5.8270   -7.6148   10.7646 S.3       1 <0>         0.0456
     21 S3         -8.8123   -8.7003   11.2913 S.3       1 <0>         0.0508
     22 C10       -10.2944   -8.5262   10.2599 C.3       1 <0>        -0.1092
     23 C11       -11.4747   -9.2211   10.9417 C.3       1 <0>        -0.0808
     24 C12       -11.8049   -8.4996   12.2498 C.3       1 <0>        -0.1563
     25 C13       -12.6927   -9.1828   10.0166 C.3       1 <0>        -0.1438
     26 C14         2.2003   -0.2154    1.3935 C.3       1 <0>        -0.1593
     27 H1          1.0039    1.9031    0.0027 H         1 <0>         0.0584
     28 H2         -0.5459    1.8868   -0.8726 H         1 <0>         0.0681
     29 H3         -0.5289    1.8773    0.9072 H         1 <0>         0.0582
     30 H4         -1.0205   -0.3814    0.0098 H         1 <0>         0.0882
     31 H5          0.5123   -0.3556   -0.8948 H         1 <0>         0.0901
     32 H6          1.7253   -1.4507    3.3600 H         1 <0>         0.3988
     33 H7         -2.1090   -5.6431    7.1497 H         1 <0>         0.1318
     34 H8         -2.5115   -4.1312    7.9986 H         1 <0>         0.1318
     35 H9         -3.4351   -6.2245    9.4226 H         1 <0>         0.4322
     36 H10       -10.5226   -7.4687   10.1273 H         1 <0>         0.1002
     37 H11       -10.1158   -8.9842    9.2870 H         1 <0>         0.1001
     38 H12       -11.2126  -10.2575   11.1546 H         1 <0>         0.0829
     39 H13       -12.0670   -7.4632   12.0370 H         1 <0>         0.0614
     40 H14       -12.6458   -8.9946   12.7356 H         1 <0>         0.0633
     41 H15       -10.9371   -8.5269   12.9089 H         1 <0>         0.0619
     42 H16       -12.4575   -9.6968    9.0847 H         1 <0>         0.0600
     43 H17       -13.5336   -9.6778   10.5024 H         1 <0>         0.0649
     44 H18       -12.9549   -8.1464    9.8038 H         1 <0>         0.0604
     45 H19         2.3265    0.7264    1.9275 H         1 <0>         0.0858
     46 H20         2.6647   -1.0208    1.9625 H         1 <0>         0.0624
     47 H21         2.6726   -0.1436    0.4137 H         1 <0>         0.0898
     48 H22         1.5508   -2.7864    5.6433 H         1 <0>         0.4384
@<TRIPOS>BOND
     1    1    2 1
     2    1   27 1
     3    1   28 1
     4    1   29 1
     5    2    3 1
     6    2   30 1
     7    2   31 1
     8    3    4 2
     9    3   26 1
    10    4    5 1
    11    5    6 1
    12    5   32 1
    13    6   10 1
    14    6    7 2
    15    7    8 1
    16    8    9 2
    17    8   11 1
    18    9   10 1
    19   10   48 1
    20   11   12 1
    21   12   13 1
    22   12   33 1
    23   12   34 1
    24   13   14 2
    25   13   15 am
    26   15   16 1
    27   15   35 1
    28   16   20 1
    29   16   17 2
    30   17   18 1
    31   18   19 2
    32   19   20 1
    33   19   21 1
    34   21   22 1
    35   22   23 1
    36   22   36 1
    37   22   37 1
    38   23   24 1
    39   23   25 1
    40   23   38 1
    41   24   39 1
    42   24   40 1
    43   24   41 1
    44   25   42 1
    45   25   43 1
    46   25   44 1
    47   26   45 1
    48   26   46 1
    49   26   47 1
@<TRIPOS>MOLECULE
ZINC09951568
   47    49     0     0     0
SMALL
USER_CHARGES
2-[[4-methyl-5-(2-methyl-3-furyl)-1,2,4-triazol-3-yl]sulfanyl]-N-(4-sulfamoylphenyl)-propanamide
@<TRIPOS>ATOM
      1 C1          0.2268   -6.7178   -2.4759 C.3       1 <0>        -0.0859
      2 C2          1.3927   -6.8957   -1.5377 C.2       1 <0>         0.0640
      3 C3          1.8658   -5.9605   -0.6705 C.2       1 <0>        -0.1397
      4 C4          2.9944   -6.5951    0.0223 C.2       1 <0>        -0.1950
      5 C5          3.0953   -7.8327   -0.4899 C.2       1 <0>        -0.0246
      6 O1          2.1415   -8.0016   -1.4183 O.3       1 <0>        -0.1720
      7 C6          1.3472   -4.5909   -0.4637 C.2       1 <0>         0.2699
      8 N1          0.0882   -4.2457   -0.3272 N.2       1 <0>        -0.2712
      9 N2         -0.0035   -2.9744   -0.1644 N.2       1 <0>        -0.2873
     10 C7          1.1907   -2.4292   -0.1869 C.2       1 <0>         0.1417
     11 N3          2.0925   -3.4378   -0.3841 N.pl3     1 <0>        -0.4559
     12 C8          3.5489   -3.3161   -0.4858 C.3       1 <0>         0.0714
     13 S1          1.5615   -0.7163   -0.0045 S.3       1 <0>         0.0808
     14 C9         -0.1098   -0.0532    0.2026 C.3       1 <0>        -0.1091
     15 H1         -0.7300   -0.3616   -0.6391 H         1 <0>         0.1308
     16 C10        -0.7130   -0.5876    1.5032 C.3       1 <0>        -0.1473
     17 C11        -0.0500    1.4516    0.2577 C.2       1 <0>         0.5402
     18 O2          0.9931    2.0075    0.5297 O.2       1 <0>        -0.4945
     19 N4         -1.1543    2.1798   -0.0007 N.am      1 <0>        -0.6680
     20 C12        -1.1236    3.5715    0.1412 C.ar      1 <0>         0.2046
     21 C13        -2.2430    4.2481    0.6078 C.ar      1 <0>        -0.1632
     22 C14        -2.2073    5.6212    0.7531 C.ar      1 <0>         0.0025
     23 C15        -1.0628    6.3234    0.4225 C.ar      1 <0>        -0.6908
     24 C16         0.0514    5.6532   -0.0482 C.ar      1 <0>         0.0026
     25 C17         0.0243    4.2796   -0.1895 C.ar      1 <0>        -0.1427
     26 S2         -1.0240    8.0758    0.6019 S.o2      1 <0>         2.7030
     27 O3         -2.0049    8.4062    1.5755 O.2       1 <0>        -0.9630
     28 O4          0.3424    8.4394    0.7432 O.2       1 <0>        -0.9621
     29 N5         -1.5411    8.7262   -0.8306 N.pl3     1 <0>        -1.2501
     30 H2          0.5834   -6.3245   -3.4279 H         1 <0>         0.0857
     31 H3         -0.2583   -7.6801   -2.6392 H         1 <0>         0.0857
     32 H4         -0.4878   -6.0201   -2.0393 H         1 <0>         0.1029
     33 H5          3.6164   -6.1562    0.7884 H         1 <0>         0.1544
     34 H6          3.8265   -8.5730   -0.2006 H         1 <0>         0.2112
     35 H7          3.9980   -3.5005    0.4901 H         1 <0>         0.0882
     36 H8          3.9253   -4.0459   -1.2026 H         1 <0>         0.0970
     37 H9          3.8070   -2.3115   -0.8206 H         1 <0>         0.0958
     38 H10        -0.7562   -1.6760    1.4634 H         1 <0>         0.0952
     39 H11        -0.0928   -0.2792    2.3449 H         1 <0>         0.0731
     40 H12        -1.7195   -0.1883    1.6280 H         1 <0>         0.0747
     41 H13        -1.9703    1.7391   -0.2851 H         1 <0>         0.4201
     42 H14        -3.1389    3.7008    0.8613 H         1 <0>         0.1405
     43 H15        -3.0756    6.1474    1.1212 H         1 <0>         0.1495
     44 H16         0.9438    6.2044   -0.3052 H         1 <0>         0.1486
     45 H17         0.8951    3.7566   -0.5565 H         1 <0>         0.1502
     46 H18        -1.7931    8.1442   -1.5645 H         1 <0>         0.4166
     47 H19        -1.5920    9.6891   -0.9357 H         1 <0>         0.4215
@<TRIPOS>BOND
     1    1    2 1
     2    1   30 1
     3    1   31 1
     4    1   32 1
     5    2    6 1
     6    2    3 2
     7    3    4 1
     8    3    7 1
     9    4    5 2
    10    4   33 1
    11    5    6 1
    12    5   34 1
    13    7   11 1
    14    7    8 2
    15    8    9 1
    16    9   10 2
    17   10   11 1
    18   10   13 1
    19   11   12 1
    20   12   35 1
    21   12   36 1
    22   12   37 1
    23   13   14 1
    24   14   15 1
    25   14   16 1
    26   14   17 1
    27   16   38 1
    28   16   39 1
    29   16   40 1
    30   17   18 2
    31   17   19 am
    32   19   20 1
    33   19   41 1
    34   20   25 ar
    35   20   21 ar
    36   21   22 ar
    37   21   42 1
    38   22   23 ar
    39   22   43 1
    40   23   24 ar
    41   23   26 1
    42   24   25 ar
    43   24   44 1
    44   25   45 1
    45   26   27 2
    46   26   28 2
    47   26   29 1
    48   29   46 1
    49   29   47 1
@<TRIPOS>MOLECULE
ZINC17115411
   56    59     0     0     0
SMALL
USER_CHARGES
N-(1,3-dioxo-2,4-diazaspiro[4.5]decan-2-yl)-4-[(4-fluoro-3-methyl-phenyl)sulfonylamino]benzamide
@<TRIPOS>ATOM
      1 C1          3.6570   -1.2485   -3.6389 C.3       1 <0>        -0.1192
      2 C2          2.2092   -0.9684   -3.3280 C.ar      1 <0>        -0.1357
      3 C3          1.8273   -0.6557   -2.0369 C.ar      1 <0>         0.0108
      4 C4          0.4996   -0.3983   -1.7515 C.ar      1 <0>        -0.6892
      5 C5         -0.4488   -0.4585   -2.7559 C.ar      1 <0>         0.0061
      6 C6         -0.0686   -0.7657   -4.0483 C.ar      1 <0>        -0.1690
      7 C7          1.2614   -1.0238   -4.3354 C.ar      1 <0>         0.1594
      8 F1          1.6335   -1.3289   -5.5978 F         1 <0>        -0.1244
      9 S1          0.0142   -0.0003   -0.1051 S.o2      1 <0>         2.6926
     10 O1          1.0676   -0.4332    0.7447 O.2       1 <0>        -0.9415
     11 O2         -1.3229   -0.4572    0.0457 O.2       1 <0>        -0.9412
     12 N1         -0.0347    1.6513    0.0052 N.pl3     1 <0>        -1.0547
     13 C8          1.1248    2.3953   -0.1834 C.ar      1 <0>         0.1773
     14 C9          2.3104    2.0016    0.4310 C.ar      1 <0>        -0.1613
     15 C10         3.4608    2.7326    0.2416 C.ar      1 <0>        -0.0566
     16 C11         3.4355    3.8780   -0.5594 C.ar      1 <0>        -0.1378
     17 C12         2.2420    4.2739   -1.1704 C.ar      1 <0>        -0.0299
     18 C13         1.0963    3.5355   -0.9817 C.ar      1 <0>        -0.1346
     19 C14         4.6655    4.6676   -0.7592 C.2       1 <0>         0.5716
     20 O3          4.6419    5.6639   -1.4558 O.2       1 <0>        -0.5065
     21 N2          5.8153    4.2847   -0.1695 N.am      1 <0>        -0.5033
     22 N3          6.9834    5.0346   -0.3592 N.am      1 <0>        -0.3769
     23 C15         7.5175    5.8542    0.5697 C.2       1 <0>         0.5325
     24 O4          7.0951    6.0737    1.6847 O.2       1 <0>        -0.4452
     25 C16         8.7539    6.4408   -0.0723 C.3       1 <0>         0.1393
     26 C17         9.9982    6.0525    0.7186 C.3       1 <0>        -0.1160
     27 C18        11.2407    6.6318    0.0374 C.3       1 <0>        -0.1172
     28 C19        11.1171    8.1552   -0.0357 C.3       1 <0>        -0.1263
     29 C20         9.8785    8.5286   -0.8527 C.3       1 <0>        -0.1170
     30 C21         8.6305    7.9570   -0.1753 C.3       1 <0>        -0.1170
     31 N4          8.7832    5.8343   -1.4092 N.am      1 <0>        -0.7071
     32 C22         7.7112    5.0223   -1.4827 C.2       1 <0>         0.7073
     33 O5          7.4339    4.3557   -2.4604 O.2       1 <0>        -0.5226
     34 H1          3.8554   -2.3133   -3.5168 H         1 <0>         0.0805
     35 H2          3.8714   -0.9544   -4.6663 H         1 <0>         0.0751
     36 H3          4.2912   -0.6804   -2.9584 H         1 <0>         0.0791
     37 H4          2.5666   -0.6128   -1.2507 H         1 <0>         0.1525
     38 H5         -1.4865   -0.2612   -2.5310 H         1 <0>         0.1506
     39 H6         -0.8090   -0.8090   -4.8334 H         1 <0>         0.1493
     40 H7         -0.8729    2.0999    0.1976 H         1 <0>         0.4326
     41 H8          2.3283    1.1191    1.0532 H         1 <0>         0.1683
     42 H9          4.3814    2.4240    0.7146 H         1 <0>         0.1354
     43 H10         2.2194    5.1581   -1.7900 H         1 <0>         0.1459
     44 H11         0.1740    3.8406   -1.4537 H         1 <0>         0.1420
     45 H12         5.8341    3.4899    0.3862 H         1 <0>         0.4266
     46 H13         9.9223    6.4475    1.7317 H         1 <0>         0.0937
     47 H14        10.0790    4.9662    0.7580 H         1 <0>         0.0773
     48 H15        11.3256    6.2252   -0.9704 H         1 <0>         0.0661
     49 H16        12.1278    6.3662    0.6124 H         1 <0>         0.0776
     50 H17        12.0054    8.5691   -0.5129 H         1 <0>         0.0711
     51 H18        11.0236    8.5607    0.9717 H         1 <0>         0.0699
     52 H19         9.9679    8.1159   -1.8576 H         1 <0>         0.0660
     53 H20         9.7955    9.6139   -0.9114 H         1 <0>         0.0776
     54 H21         7.7493    8.2103   -0.7647 H         1 <0>         0.0789
     55 H22         8.5333    8.3819    0.8238 H         1 <0>         0.0930
     56 H23         9.4459    5.9854   -2.1013 H         1 <0>         0.4442
@<TRIPOS>BOND
     1    1    2 1
     2    1   34 1
     3    1   35 1
     4    1   36 1
     5    2    7 ar
     6    2    3 ar
     7    3    4 ar
     8    3   37 1
     9    4    5 ar
    10    4    9 1
    11    5    6 ar
    12    5   38 1
    13    6    7 ar
    14    6   39 1
    15    7    8 1
    16    9   10 2
    17    9   11 2
    18    9   12 1
    19   12   13 1
    20   12   40 1
    21   13   18 ar
    22   13   14 ar
    23   14   15 ar
    24   14   41 1
    25   15   16 ar
    26   15   42 1
    27   16   17 ar
    28   16   19 1
    29   17   18 ar
    30   17   43 1
    31   18   44 1
    32   19   20 2
    33   19   21 am
    34   21   22 1
    35   21   45 1
    36   22   32 am
    37   22   23 am
    38   23   24 2
    39   23   25 1
    40   25   30 1
    41   25   26 1
    42   25   31 1
    43   26   27 1
    44   26   46 1
    45   26   47 1
    46   27   28 1
    47   27   48 1
    48   27   49 1
    49   28   29 1
    50   28   50 1
    51   28   51 1
    52   29   30 1
    53   29   52 1
    54   29   53 1
    55   30   54 1
    56   30   55 1
    57   31   32 am
    58   31   56 1
    59   32   33 2
@<TRIPOS>MOLECULE
ZINC39264822
   64    68     0     0     0
SMALL
USER_CHARGES

@<TRIPOS>ATOM
      1 C1         -0.1473    1.6467    0.3198 C.3       1 <0>        -0.1483
      2 C2         -0.0772    0.1252    0.1753 C.3       1 <0>        -0.1104
      3 H1         -1.0941   -0.2671    0.1605 H         1 <0>         0.0841
      4 C3          0.5648   -0.1928   -1.1093 C.3       1 <0>        -0.1173
      5 C4          0.5658   -1.7233   -1.3457 C.3       1 <0>         0.1024
      6 N1          1.5041   -2.3528   -0.4437 N.pl3     1 <0>        -0.5633
      7 C5          1.1181   -2.8447    0.8933 C.3       1 <0>         0.1266
      8 C6          0.1846   -1.8636    1.6254 C.3       1 <0>        -0.0754
      9 C7          0.6439   -0.4443    1.3932 C.3       1 <0>        -0.0982
     10 C8         -1.2417   -2.0307    1.0975 C.3       1 <0>        -0.1588
     11 C9          0.2064   -2.1658    3.1251 C.3       1 <0>        -0.1386
     12 C10         2.8187   -2.4998   -0.8505 C.ar      1 <0>         0.5003
     13 C11         3.2365   -2.0419   -2.1120 C.ar      1 <0>        -0.1023
     14 C12         4.5837   -2.2192   -2.4691 C.ar      1 <0>         0.3138
     15 N2          5.4079   -2.8082   -1.6086 N.ar      1 <0>        -0.5547
     16 C13         4.9721   -3.2210   -0.4373 C.ar      1 <0>         0.3651
     17 N3          3.7165   -3.0721   -0.0555 N.ar      1 <0>        -0.5923
     18 N4          4.7138   -1.6909   -3.7285 N.pl3     1 <0>        -0.4723
     19 C14         3.4907   -1.2191   -4.1021 C.2       1 <0>         0.2588
     20 N5          2.6254   -1.4260   -3.1523 N.2       1 <0>        -0.4532
     21 C15         5.9421   -1.6422   -4.5255 C.3       1 <0>         0.3153
     22 H2          6.8052   -1.4746   -3.8812 H         1 <0>         0.1267
     23 C16         6.1154   -2.9514   -5.3269 C.3       1 <0>         0.0821
     24 H3          5.1508   -3.4345   -5.4824 H         1 <0>         0.0890
     25 C17         6.7135   -2.4901   -6.6748 C.3       1 <0>         0.0509
     26 H4          6.0445   -2.7452   -7.4967 H         1 <0>         0.0910
     27 C18         6.8307   -0.9568   -6.5283 C.3       1 <0>         0.0332
     28 H5          7.8310   -0.6830   -6.1926 H         1 <0>         0.1207
     29 O1          5.8519   -0.6039   -5.5253 O.3       1 <0>        -0.3271
     30 C19         6.5136   -0.2790   -7.8364 C.2       1 <0>         0.5226
     31 O2          5.5384    0.4362   -7.9280 O.2       1 <0>        -0.5012
     32 N6          7.3137   -0.4677   -8.9044 N.am      1 <0>        -0.6984
     33 C20         7.0054    0.1912  -10.1761 C.3       1 <0>         0.0753
     34 C21         7.1329   -0.6424  -11.4527 C.3       1 <0>        -0.1897
     35 C22         8.1658    0.4424  -11.1411 C.3       1 <0>        -0.1850
     36 O3          8.0007   -3.0763   -6.8782 O.3       1 <0>        -0.5313
     37 O4          7.0140   -3.8354   -4.6537 O.3       1 <0>        -0.5229
     38 H6          0.8623    2.0571    0.3365 H         1 <0>         0.0496
     39 H7         -0.6964    2.0668   -0.5229 H         1 <0>         0.0529
     40 H8         -0.6580    1.9003    1.2488 H         1 <0>         0.0520
     41 H9          0.0193    0.2965   -1.9162 H         1 <0>         0.0736
     42 H10         1.5921    0.1713   -1.0991 H         1 <0>         0.0606
     43 H11        -0.4334   -2.1192   -1.1643 H         1 <0>         0.0831
     44 H12         0.8568   -1.9314   -2.3753 H         1 <0>         0.1095
     45 H13         0.6097   -3.8027    0.7848 H         1 <0>         0.0624
     46 H14         2.0182   -2.9893    1.4907 H         1 <0>         0.0985
     47 H15         1.7197   -0.4313    1.2179 H         1 <0>         0.0609
     48 H16         0.4105    0.1602    2.2697 H         1 <0>         0.0646
     49 H17        -1.5800   -3.0505    1.2811 H         1 <0>         0.0538
     50 H18        -1.9027   -1.3310    1.6090 H         1 <0>         0.0595
     51 H19        -1.2586   -1.8295    0.0264 H         1 <0>         0.0734
     52 H20         1.2223   -2.0532    3.5037 H         1 <0>         0.0584
     53 H21        -0.4541   -1.4720    3.6452 H         1 <0>         0.0600
     54 H22        -0.1335   -3.1874    3.2949 H         1 <0>         0.0575
     55 H23         5.6680   -3.6960    0.2383 H         1 <0>         0.2029
     56 H24         3.2720   -0.7438   -5.0469 H         1 <0>         0.2228
     57 H25         8.0936   -1.0397   -8.8312 H         1 <0>         0.3994
     58 H26         6.2114    0.9370  -10.1388 H         1 <0>         0.1418
     59 H27         7.4461   -1.6810  -11.3465 H         1 <0>         0.0986
     60 H28         6.4225   -0.4451  -12.2556 H         1 <0>         0.1061
     61 H29         8.1351    1.3533  -11.7389 H         1 <0>         0.1075
     62 H30         9.1586    0.1175  -10.8298 H         1 <0>         0.0999
     63 H31         8.4224   -2.8205   -7.7100 H         1 <0>         0.3821
     64 H32         7.1593   -4.6736   -5.1134 H         1 <0>         0.3915
@<TRIPOS>BOND
     1    1    2 1
     2    1   38 1
     3    1   39 1
     4    1   40 1
     5    2    3 1
     6    2    9 1
     7    2    4 1
     8    4    5 1
     9    4   41 1
    10    4   42 1
    11    5    6 1
    12    5   43 1
    13    5   44 1
    14    6    7 1
    15    6   12 1
    16    7    8 1
    17    7   45 1
    18    7   46 1
    19    8    9 1
    20    8   10 1
    21    8   11 1
    22    9   47 1
    23    9   48 1
    24   10   49 1
    25   10   50 1
    26   10   51 1
    27   11   52 1
    28   11   53 1
    29   11   54 1
    30   12   17 ar
    31   12   13 ar
    32   13   20 1
    33   13   14 ar
    34   14   15 ar
    35   14   18 1
    36   15   16 ar
    37   16   17 ar
    38   16   55 1
    39   18   19 1
    40   18   21 1
    41   19   20 2
    42   19   56 1
    43   21   22 1
    44   21   29 1
    45   21   23 1
    46   23   24 1
    47   23   25 1
    48   23   37 1
    49   25   26 1
    50   25   27 1
    51   25   36 1
    52   27   28 1
    53   27   29 1
    54   27   30 1
    55   30   31 2
    56   30   32 am
    57   32   33 1
    58   32   57 1
    59   33   35 1
    60   33   34 1
    61   33   58 1
    62   34   35 1
    63   34   59 1
    64   34   60 1
    65   35   61 1
    66   35   62 1
    67   36   63 1
    68   37   64 1
@<TRIPOS>MOLECULE
ZINC57366515
   50    52     0     0     0
SMALL
USER_CHARGES

@<TRIPOS>ATOM
      1 C1         -0.0253    1.3136    0.0198 C.ar      1 <0>        -0.0796
      2 C2          1.0899    2.1246    0.1127 C.ar      1 <0>        -0.1431
      3 C3          2.3504    1.5951   -0.1057 C.ar      1 <0>         0.1070
      4 C4          2.4921    0.2534   -0.4172 C.ar      1 <0>        -0.1559
      5 C5          1.3755   -0.5556   -0.5096 C.ar      1 <0>        -0.0598
      6 C6          0.1174   -0.0258   -0.2912 C.ar      1 <0>        -0.1107
      7 C7         -1.0995   -0.9090   -0.3923 C.3       1 <0>         0.1181
      8 H1         -1.9305   -0.4448    0.1387 H         1 <0>         0.0638
      9 C8         -1.4744   -1.0942   -1.8640 C.3       1 <0>         0.1129
     10 N1         -1.8571    0.1988   -2.4369 N.pl3     1 <0>        -0.7185
     11 C9         -2.3386    0.2675   -3.7462 C.ar      1 <0>         0.3509
     12 C10        -2.3634   -0.8727   -4.5396 C.ar      1 <0>        -0.2044
     13 C11        -2.8405   -0.8014   -5.8334 C.ar      1 <0>         0.0410
     14 C12        -3.2934    0.4034   -6.3397 C.ar      1 <0>        -0.1237
     15 C13        -3.2698    1.5401   -5.5529 C.ar      1 <0>         0.0971
     16 C14        -2.7991    1.4746   -4.2560 C.ar      1 <0>        -0.7565
     17 S1         -2.7761    2.9222   -3.2518 S.o2      1 <0>         2.7001
     18 O1         -1.4677    3.0171   -2.7057 O.2       1 <0>        -0.9506
     19 O2         -3.3556    3.9631   -4.0264 O.2       1 <0>        -0.9460
     20 N2         -3.8014    2.6521   -1.9797 N.pl3     1 <0>        -1.2506
     21 N3         -3.8042    0.4761   -7.7269 N.pl3     1 <0>         0.0417
     22 O3         -3.8251   -0.5170   -8.4162 O.2       1 <0>        -0.1615
     23 O4         -4.2004    1.5285   -8.1708 O.3       1 <0>        -0.1601
     24 N4         -0.8056   -2.2179    0.2065 N.3       1 <0>        -0.5232
     25 C15        -1.9106   -3.1608   -0.0197 C.3       1 <0>         0.0079
     26 C16        -1.5383   -4.5251    0.5669 C.3       1 <0>         0.0639
     27 O5         -1.2315   -4.3736    1.9555 O.3       1 <0>        -0.3828
     28 C17        -0.1594   -3.4626    2.2122 C.3       1 <0>         0.0640
     29 C18        -0.5177   -2.0876    1.6423 C.3       1 <0>         0.0183
     30 F1          3.4413    2.3870   -0.0156 F         1 <0>        -0.1370
     31 H2         -1.0083    1.7255    0.1945 H         1 <0>         0.1267
     32 H3          0.9781    3.1710    0.3554 H         1 <0>         0.1386
     33 H4          3.4748   -0.1606   -0.5882 H         1 <0>         0.1373
     34 H5          1.4857   -1.6020   -0.7529 H         1 <0>         0.1415
     35 H6         -0.6196   -1.4944   -2.4092 H         1 <0>         0.0900
     36 H7         -2.3117   -1.7878   -1.9412 H         1 <0>         0.0873
     37 H8         -1.7760    1.0071   -1.9069 H         1 <0>         0.4099
     38 H9         -2.0095   -1.8137   -4.1450 H         1 <0>         0.1557
     39 H10        -2.8597   -1.6873   -6.4509 H         1 <0>         0.1630
     40 H11        -3.6235    2.4795   -5.9515 H         1 <0>         0.1738
     41 H12        -3.6762    3.1312   -1.1456 H         1 <0>         0.4247
     42 H13        -4.5272    2.0147   -2.0687 H         1 <0>         0.4201
     43 H14        -2.8120   -2.7889    0.4674 H         1 <0>         0.0492
     44 H15        -2.0897   -3.2615   -1.0902 H         1 <0>         0.0915
     45 H16        -2.3771   -5.2117    0.4522 H         1 <0>         0.1011
     46 H17        -0.6685   -4.9214    0.0430 H         1 <0>         0.0628
     47 H18        -0.0008   -3.3809    3.2875 H         1 <0>         0.1012
     48 H19         0.7506   -3.8281    1.7362 H         1 <0>         0.0625
     49 H20         0.3200   -1.4049    1.7851 H         1 <0>         0.0925
     50 H21        -1.3968   -1.6985    2.1560 H         1 <0>         0.0475
@<TRIPOS>BOND
     1    1    6 ar
     2    1    2 ar
     3    1   31 1
     4    2    3 ar
     5    2   32 1
     6    3    4 ar
     7    3   30 1
     8    4    5 ar
     9    4   33 1
    10    5    6 ar
    11    5   34 1
    12    6    7 1
    13    7    8 1
    14    7    9 1
    15    7   24 1
    16    9   10 1
    17    9   35 1
    18    9   36 1
    19   10   11 1
    20   10   37 1
    21   11   16 ar
    22   11   12 ar
    23   12   13 ar
    24   12   38 1
    25   13   14 ar
    26   13   39 1
    27   14   15 ar
    28   14   21 1
    29   15   16 ar
    30   15   40 1
    31   16   17 1
    32   17   18 2
    33   17   19 2
    34   17   20 1
    35   20   41 1
    36   20   42 1
    37   21   22 2
    38   21   23 1
    39   24   29 1
    40   24   25 1
    41   25   26 1
    42   25   43 1
    43   25   44 1
    44   26   27 1
    45   26   45 1
    46   26   46 1
    47   27   28 1
    48   28   29 1
    49   28   47 1
    50   28   48 1
    51   29   49 1
    52   29   50 1
@<TRIPOS>MOLECULE
ZINC64788644
   56    59     0     0     0
SMALL
USER_CHARGES

@<TRIPOS>ATOM
      1 C1          2.5012   -0.7991   -1.3726 C.3       1 <0>        -0.1147
      2 C2          1.2093   -1.1061   -0.6601 C.ar      1 <0>        -0.0725
      3 C3          0.0068   -0.6874   -1.1992 C.ar      1 <0>        -0.1062
      4 C4         -1.1808   -0.9675   -0.5486 C.ar      1 <0>        -0.0720
      5 C5         -1.1690   -1.6669    0.6425 C.ar      1 <0>        -0.0995
      6 C6          0.0368   -2.0886    1.1863 C.ar      1 <0>         0.1381
      7 C7          1.2271   -1.8104    0.5280 C.ar      1 <0>        -0.1000
      8 N1          0.0521   -2.7980    2.3949 N.am      1 <0>        -0.5160
      9 C8          0.1454   -2.1187    3.5565 C.2       1 <0>         0.5849
     10 O1          0.2155   -0.9041    3.5661 O.2       1 <0>        -0.5174
     11 C9          0.1595   -2.8873    4.8137 C.2       1 <0>        -0.4136
     12 C10         0.0697   -4.3544    4.7043 C.2       1 <0>         0.5908
     13 N2         -0.0190   -4.8977    3.4728 N.am      1 <0>        -0.6611
     14 C11        -0.0318   -4.1356    2.3701 C.2       1 <0>         0.7121
     15 O2         -0.1187   -4.6868    1.2905 O.2       1 <0>        -0.5221
     16 O3          0.0758   -5.0565    5.6979 O.2       1 <0>        -0.5089
     17 C12         0.2533   -2.2598    6.0421 C.2       1 <0>         0.3487
     18 N3          0.3342   -0.9320    6.2491 N.pl3     1 <0>        -0.4983
     19 N4          0.3812   -0.6022    7.5711 N.3       1 <0>        -0.4404
     20 C13         0.7768   -1.8130    8.3274 C.3       1 <0>         0.0980
     21 H1          1.8584   -1.8569    8.4548 H         1 <0>         0.0894
     22 C14         0.2767   -2.9458    7.3961 C.3       1 <0>        -0.1008
     23 C15         0.0773   -1.8675    9.6611 C.ar      1 <0>        -0.0819
     24 C16        -1.2426   -1.4691    9.7646 C.ar      1 <0>        -0.0803
     25 C17        -1.8887   -1.5173   10.9858 C.ar      1 <0>        -0.1753
     26 C18        -1.2135   -1.9661   12.1095 C.ar      1 <0>         0.1104
     27 C19         0.1148   -2.3675   12.0053 C.ar      1 <0>         0.0996
     28 C20         0.7550   -2.3212   10.7773 C.ar      1 <0>        -0.1574
     29 O4          0.7816   -2.8087   13.1054 O.3       1 <0>        -0.3047
     30 C21         2.1427   -3.2044   12.9236 C.3       1 <0>         0.0249
     31 O5         -1.8475   -2.0136   13.3117 O.3       1 <0>        -0.3053
     32 C22        -3.2106   -1.5856   13.3437 C.3       1 <0>         0.0248
     33 C23        -2.4891   -0.5090   -1.1393 C.3       1 <0>        -0.1150
     34 H2          2.7345   -1.6071   -2.0661 H         1 <0>         0.0745
     35 H3          2.3986    0.1352   -1.9246 H         1 <0>         0.0705
     36 H4          3.3049   -0.7034   -0.6426 H         1 <0>         0.0673
     37 H5         -0.0050   -0.1401   -2.1302 H         1 <0>         0.1291
     38 H6         -2.0968   -1.8851    1.1504 H         1 <0>         0.1243
     39 H7          2.1663   -2.1407    0.9465 H         1 <0>         0.1237
     40 H8          1.0305    0.1531    7.7324 H         1 <0>         0.3611
     41 H9         -0.7226   -3.2737    7.6823 H         1 <0>         0.1278
     42 H10         0.9753   -3.7826    7.3950 H         1 <0>         0.1282
     43 H11        -1.7699   -1.1192    8.8894 H         1 <0>         0.1351
     44 H12        -2.9195   -1.2048   11.0640 H         1 <0>         0.1384
     45 H13         1.7848   -2.6358   10.6930 H         1 <0>         0.1371
     46 H14         2.5556   -3.5342   13.8770 H         1 <0>         0.1024
     47 H15         2.1903   -4.0222   12.2046 H         1 <0>         0.0563
     48 H16         2.7203   -2.3586   12.5506 H         1 <0>         0.0547
     49 H17        -3.5954   -1.6740   14.3597 H         1 <0>         0.1024
     50 H18        -3.2728   -0.5465   13.0207 H         1 <0>         0.0564
     51 H19        -3.8032   -2.2100   12.6751 H         1 <0>         0.0567
     52 H20        -2.8802   -1.2823   -1.8004 H         1 <0>         0.0746
     53 H21        -3.2035   -0.3207   -0.3378 H         1 <0>         0.0678
     54 H22        -2.3300    0.4079   -1.7069 H         1 <0>         0.0705
     55 H23        -0.0788   -5.8617    3.3833 H         1 <0>         0.4353
     56 H24         0.3569   -0.2785    5.5327 H         1 <0>         0.4477
@<TRIPOS>BOND
     1    1    2 1
     2    1   34 1
     3    1   35 1
     4    1   36 1
     5    2    7 ar
     6    2    3 ar
     7    3    4 ar
     8    3   37 1
     9    4    5 ar
    10    4   33 1
    11    5    6 ar
    12    5   38 1
    13    6    7 ar
    14    6    8 1
    15    7   39 1
    16    8   14 am
    17    8    9 am
    18    9   10 2
    19    9   11 1
    20   11   12 1
    21   11   17 2
    22   12   13 am
    23   12   16 2
    24   13   14 am
    25   13   55 1
    26   14   15 2
    27   17   22 1
    28   17   18 1
    29   18   19 1
    30   18   56 1
    31   19   20 1
    32   19   40 1
    33   20   21 1
    34   20   22 1
    35   20   23 1
    36   22   41 1
    37   22   42 1
    38   23   28 ar
    39   23   24 ar
    40   24   25 ar
    41   24   43 1
    42   25   26 ar
    43   25   44 1
    44   26   27 ar
    45   26   31 1
    46   27   28 ar
    47   27   29 1
    48   28   45 1
    49   29   30 1
    50   30   46 1
    51   30   47 1
    52   30   48 1
    53   31   32 1
    54   32   49 1
    55   32   50 1
    56   32   51 1
    57   33   52 1
    58   33   53 1
    59   33   54 1
@<TRIPOS>MOLECULE
ZINC39272549
   63    67     0     0     0
SMALL
USER_CHARGES

@<TRIPOS>ATOM
      1 C1          0.0115    1.3039   -0.1823 C.ar      1 <0>        -0.1115
      2 C2          1.2346    1.8348   -0.5474 C.ar      1 <0>        -0.1123
      3 C3          2.3739    1.0547   -0.4821 C.ar      1 <0>        -0.1090
      4 C4          2.2903   -0.2562   -0.0512 C.ar      1 <0>        -0.0767
      5 C5          1.0674   -0.7867    0.3147 C.ar      1 <0>        -0.1023
      6 C6         -0.0722   -0.0071    0.2481 C.ar      1 <0>        -0.1070
      7 C7          3.5322   -1.1069    0.0191 C.3       1 <0>        -0.0842
      8 C8          4.1719   -0.9623    1.4014 C.3       1 <0>         0.1374
      9 H1          4.3380    0.0934    1.6162 H         1 <0>         0.1133
     10 C9          5.4897   -1.6929    1.4239 C.2       1 <0>         0.5232
     11 O1          5.5524   -2.8168    1.8755 O.2       1 <0>        -0.5047
     12 N1          6.5987   -1.0974    0.9423 N.am      1 <0>        -0.6200
     13 C10         6.5634    0.3022    0.4963 C.3       1 <0>         0.0876
     14 C11         7.6644    1.0791    1.2250 C.3       1 <0>        -0.1573
     15 C12         9.0073    0.3813    1.0054 C.3       1 <0>         0.0984
     16 C13         8.9542   -1.0357    1.5770 C.3       1 <0>        -0.1465
     17 C14         7.8676   -1.8334    0.8589 C.3       1 <0>         0.0954
     18 C15        10.1177    1.1748    1.6957 C.3       1 <0>        -0.0253
     19 H2         11.0709    0.6485    1.6461 H         1 <0>         0.1643
     20 C16        10.1786    2.5154    0.9696 C.2       1 <0>         0.1382
     21 N2         10.0231    3.4103    1.8653 N.2       1 <0>        -0.4626
     22 C17         9.7724    2.8645    3.0808 C.2       1 <0>         0.2808
     23 N3          9.7849    1.5480    3.0713 N.2       1 <0>        -0.4677
     24 C18        10.2725    2.5916   -0.5332 C.3       1 <0>        -0.0725
     25 C19         9.1919    1.6362   -1.0741 C.3       1 <0>        -0.0151
     26 N4          9.3037    0.3237   -0.4333 N.4       1 <0>        -0.5070
     27 N5          3.2801   -1.5323    2.4142 N.am      1 <0>        -0.7191
     28 C20         2.2887   -0.7840    2.9372 C.2       1 <0>         0.5666
     29 O2          2.1345    0.3640    2.5685 O.2       1 <0>        -0.5114
     30 C21         1.3887   -1.3593    3.9594 C.ar      1 <0>        -0.1409
     31 C22         1.5666   -2.6752    4.3892 C.ar      1 <0>        -0.0878
     32 C23         0.7236   -3.2059    5.3437 C.ar      1 <0>        -0.1260
     33 C24        -0.2968   -2.4367    5.8743 C.ar      1 <0>        -0.0877
     34 C25        -0.4789   -1.1317    5.4523 C.ar      1 <0>        -0.1262
     35 C26         0.3610   -0.5870    4.5030 C.ar      1 <0>        -0.0559
     36 H3         -0.8779    1.9147   -0.2291 H         1 <0>         0.1203
     37 H4          1.2999    2.8589   -0.8840 H         1 <0>         0.1191
     38 H5          3.3293    1.4692   -0.7680 H         1 <0>         0.1099
     39 H6          1.0020   -1.8110    0.6510 H         1 <0>         0.1116
     40 H7         -1.0276   -0.4217    0.5336 H         1 <0>         0.1188
     41 H8          3.2678   -2.1505   -0.1516 H         1 <0>         0.0861
     42 H9          4.2390   -0.7817   -0.7443 H         1 <0>         0.0815
     43 H10         6.7347    0.3475   -0.5792 H         1 <0>         0.0763
     44 H11         5.5920    0.7366    0.7324 H         1 <0>         0.1206
     45 H12         7.7138    2.0947    0.8322 H         1 <0>         0.1031
     46 H13         7.4416    1.1117    2.2915 H         1 <0>         0.1238
     47 H14         9.9190   -1.5221    1.4335 H         1 <0>         0.1094
     48 H15         8.7245   -0.9901    2.6415 H         1 <0>         0.1273
     49 H16         7.7568   -2.8078    1.3348 H         1 <0>         0.1269
     50 H17         8.1457   -1.9648   -0.1868 H         1 <0>         0.0705
     51 H18         9.5896    3.4486    3.9706 H         1 <0>         0.2210
     52 H19        10.0766    3.6095   -0.8704 H         1 <0>         0.1460
     53 H20        11.2594    2.2684   -0.8645 H         1 <0>         0.1311
     54 H21         8.2062    2.0542   -0.8700 H         1 <0>         0.1398
     55 H22         9.3167    1.5234   -2.1510 H         1 <0>         0.1603
     56 H23        10.2423   -0.0240   -0.5607 H         1 <0>         0.4318
     57 H24         3.4031   -2.4484    2.7085 H         1 <0>         0.4103
     58 H25         2.3622   -3.2769    3.9752 H         1 <0>         0.1238
     59 H26         0.8602   -4.2240    5.6771 H         1 <0>         0.1310
     60 H27        -0.9542   -2.8570    6.6211 H         1 <0>         0.1305
     61 H28        -1.2775   -0.5367    5.8703 H         1 <0>         0.1324
     62 H29         0.2208    0.4334    4.1780 H         1 <0>         0.1357
     63 H30         8.6576   -0.3127   -0.8756 H         1 <0>         0.4329
@<TRIPOS>BOND
     1    1    6 ar
     2    1    2 ar
     3    1   36 1
     4    2    3 ar
     5    2   37 1
     6    3    4 ar
     7    3   38 1
     8    4    5 ar
     9    4    7 1
    10    5    6 ar
    11    5   39 1
    12    6   40 1
    13    7    8 1
    14    7   41 1
    15    7   42 1
    16    8    9 1
    17    8   10 1
    18    8   27 1
    19   10   11 2
    20   10   12 am
    21   12   17 1
    22   12   13 1
    23   13   14 1
    24   13   43 1
    25   13   44 1
    26   14   15 1
    27   14   45 1
    28   14   46 1
    29   15   26 1
    30   15   16 1
    31   15   18 1
    32   16   17 1
    33   16   47 1
    34   16   48 1
    35   17   49 1
    36   17   50 1
    37   18   19 1
    38   18   23 1
    39   18   20 1
    40   20   21 2
    41   20   24 1
    42   21   22 1
    43   22   23 2
    44   22   51 1
    45   24   25 1
    46   24   52 1
    47   24   53 1
    48   25   26 1
    49   25   54 1
    50   25   55 1
    51   26   56 1
    52   26   63 1
    53   27   28 am
    54   27   57 1
    55   28   29 2
    56   28   30 1
    57   30   35 ar
    58   30   31 ar
    59   31   32 ar
    60   31   58 1
    61   32   33 ar
    62   32   59 1
    63   33   34 ar
    64   33   60 1
    65   34   35 ar
    66   34   61 1
    67   35   62 1
@<TRIPOS>MOLECULE
ZINC39658875
   61    64     0     0     0
SMALL
USER_CHARGES

@<TRIPOS>ATOM
      1 C1         -2.7625    0.9890    6.7126 C.3       1 <0>        -0.1552
      2 C2         -1.9925    0.9690    5.3907 C.3       1 <0>         0.2529
      3 O1         -2.9049    0.7584    4.3050 O.3       1 <0>        -0.3712
      4 C3         -2.4976   -0.4496    3.6311 C.3       1 <0>         0.0300
      5 C4         -1.0122   -0.5981    4.0452 C.3       1 <0>         0.0320
      6 H1         -0.3685    0.0176    3.4168 H         1 <0>         0.0954
      7 O2         -1.0352   -0.1032    5.4056 O.3       1 <0>        -0.3733
      8 C5         -0.5753   -2.0637    4.0018 C.3       1 <0>         0.1275
      9 N1          0.8313   -2.1660    4.3983 N.am      1 <0>        -0.7229
     10 C6          1.4355   -3.3702    4.4340 C.2       1 <0>         0.5212
     11 O3          0.8148   -4.3691    4.1378 O.2       1 <0>        -0.5194
     12 C7          2.8825   -3.4754    4.8419 C.3       1 <0>        -0.1129
     13 H2          3.4111   -2.5522    4.6043 H         1 <0>         0.1129
     14 C8          3.5538   -4.6760    4.1382 C.3       1 <0>         0.1168
     15 N2          4.4748   -5.2382    5.1541 N.am      1 <0>        -0.6184
     16 C9          3.7222   -5.1413    6.4278 C.3       1 <0>         0.0905
     17 C10         2.9942   -3.7849    6.3442 C.3       1 <0>        -0.0714
     18 C11         1.6053   -3.8930    6.9662 C.3       1 <0>        -0.1492
     19 C12         1.7427   -4.1429    8.4707 C.3       1 <0>        -0.0073
     20 N3          2.4918   -3.0404    9.0854 N.4       1 <0>        -0.5052
     21 C13         3.8574   -3.0021    8.5484 C.3       1 <0>        -0.0112
     22 C14         3.8094   -2.7038    7.0472 C.3       1 <0>        -0.1362
     23 C15         5.7163   -5.7267    4.9633 C.2       1 <0>         0.5849
     24 O4          6.2508   -5.6208    3.8767 O.2       1 <0>        -0.5047
     25 C16         6.4278   -6.3912    6.0752 C.ar      1 <0>        -0.1191
     26 C17         5.7117   -6.9023    7.1595 C.ar      1 <0>        -0.0935
     27 C18         6.3805   -7.5213    8.1943 C.ar      1 <0>        -0.1063
     28 C19         7.7603   -7.6367    8.1604 C.ar      1 <0>        -0.0078
     29 C20         8.4771   -7.1316    7.0871 C.ar      1 <0>        -0.0367
     30 C21         7.8178   -6.5154    6.0426 C.ar      1 <0>        -0.0373
     31 Cl1        10.2064   -7.2805    7.0529 Cl        1 <0>        -0.0232
     32 Cl2         8.5952   -8.4164    9.4676 Cl        1 <0>        -0.0261
     33 C22        -1.2678    2.3026    5.1977 C.3       1 <0>        -0.1734
     34 H3         -2.0652    1.1380    7.5370 H         1 <0>         0.0730
     35 H4         -3.4876    1.8028    6.6985 H         1 <0>         0.0822
     36 H5         -3.2834    0.0406    6.8442 H         1 <0>         0.0671
     37 H6         -3.0817   -1.3011    3.9802 H         1 <0>         0.0828
     38 H7         -2.5869   -0.3368    2.5507 H         1 <0>         0.1081
     39 H8         -1.1896   -2.6464    4.6883 H         1 <0>         0.0844
     40 H9         -0.6964   -2.4492    2.9895 H         1 <0>         0.0943
     41 H10         1.3277   -1.3670    4.6352 H         1 <0>         0.4049
     42 H11         2.8060   -5.4158    3.8525 H         1 <0>         0.1017
     43 H12         4.1116   -4.3408    3.2638 H         1 <0>         0.1001
     44 H13         3.0025   -5.9561    6.5073 H         1 <0>         0.0930
     45 H14         4.4067   -5.1529    7.2760 H         1 <0>         0.0945
     46 H15         1.0590   -2.9646    6.8000 H         1 <0>         0.1004
     47 H16         1.0647   -4.7210    6.5077 H         1 <0>         0.1274
     48 H17         0.7518   -4.2040    8.9206 H         1 <0>         0.1404
     49 H18         2.2746   -5.0799    8.6360 H         1 <0>         0.1322
     50 H19         2.0280   -2.1671    8.8843 H         1 <0>         0.4298
     51 H20         4.4253   -2.2222    9.0556 H         1 <0>         0.1412
     52 H21         4.3389   -3.9662    8.7118 H         1 <0>         0.1316
     53 H22         4.8227   -2.6933    6.6457 H         1 <0>         0.1191
     54 H23         3.3427   -1.7323    6.8840 H         1 <0>         0.0993
     55 H24         4.6358   -6.8125    7.1878 H         1 <0>         0.1474
     56 H25         5.8272   -7.9168    9.0332 H         1 <0>         0.1514
     57 H26         8.3764   -6.1260    5.2044 H         1 <0>         0.1583
     58 H27        -0.5613    2.4536    6.0139 H         1 <0>         0.0752
     59 H28        -0.7303    2.2901    4.2495 H         1 <0>         0.0637
     60 H29        -1.9955    3.1141    5.1922 H         1 <0>         0.0800
     61 H30         2.5284   -3.1763   10.0846 H         1 <0>         0.4345
@<TRIPOS>BOND
     1    1    2 1
     2    1   34 1
     3    1   35 1
     4    1   36 1
     5    2    7 1
     6    2    3 1
     7    2   33 1
     8    3    4 1
     9    4    5 1
    10    4   37 1
    11    4   38 1
    12    5    6 1
    13    5    7 1
    14    5    8 1
    15    8    9 1
    16    8   39 1
    17    8   40 1
    18    9   10 am
    19    9   41 1
    20   10   11 2
    21   10   12 1
    22   12   13 1
    23   12   17 1
    24   12   14 1
    25   14   15 1
    26   14   42 1
    27   14   43 1
    28   15   16 1
    29   15   23 am
    30   16   17 1
    31   16   44 1
    32   16   45 1
    33   17   22 1
    34   17   18 1
    35   18   19 1
    36   18   46 1
    37   18   47 1
    38   19   20 1
    39   19   48 1
    40   19   49 1
    41   20   21 1
    42   20   50 1
    43   20   61 1
    44   21   22 1
    45   21   51 1
    46   21   52 1
    47   22   53 1
    48   22   54 1
    49   23   24 2
    50   23   25 1
    51   25   30 ar
    52   25   26 ar
    53   26   27 ar
    54   26   55 1
    55   27   28 ar
    56   27   56 1
    57   28   29 ar
    58   28   32 1
    59   29   30 ar
    60   29   31 1
    61   30   57 1
    62   33   58 1
    63   33   59 1
    64   33   60 1
@<TRIPOS>MOLECULE
ZINC39674993
   65    68     0     0     0
SMALL
USER_CHARGES

@<TRIPOS>ATOM
      1 C1         -0.0509    1.2119   -0.5590 C.3       1 <0>        -0.1247
      2 C2         -0.0475   -0.2908   -0.4455 C.ar      1 <0>        -0.0845
      3 C3          0.5300   -0.8971    0.6558 C.ar      1 <0>        -0.0995
      4 C4          0.5371   -2.2721    0.7661 C.ar      1 <0>        -0.1042
      5 C5         -0.0404   -3.0537   -0.2361 C.ar      1 <0>        -0.1136
      6 C6         -0.6221   -2.4381   -1.3449 C.ar      1 <0>        -0.0885
      7 C7         -0.6276   -1.0594   -1.4416 C.ar      1 <0>         0.0954
      8 F1         -1.1950   -0.4604   -2.5114 F         1 <0>        -0.1280
      9 C8         -0.0352   -4.5279   -0.1233 C.2       1 <0>         0.5970
     10 O1         -0.1666   -5.2140   -1.1180 O.2       1 <0>        -0.5239
     11 N1          0.1154   -5.1110    1.0824 N.am      1 <0>        -0.6143
     12 C9          0.1574   -4.4540    2.4101 C.3       1 <0>         0.1030
     13 C10        -0.6335   -5.4016    3.3397 C.3       1 <0>        -0.1147
     14 H1         -0.1720   -5.4374    4.3266 H         1 <0>         0.1201
     15 C11        -0.5502   -6.7783    2.6594 C.3       1 <0>        -0.0731
     16 C12         0.2698   -6.5550    1.3806 C.3       1 <0>         0.1076
     17 C13        -1.9473   -7.2768    2.3026 C.3       1 <0>        -0.1472
     18 C14        -1.8427   -8.6717    1.6795 C.3       1 <0>        -0.0091
     19 N2         -1.2026   -9.5879    2.6312 N.4       1 <0>        -0.5046
     20 C15         0.1735   -9.1522    2.8978 C.3       1 <0>        -0.0104
     21 C16         0.1542   -7.7775    3.5721 C.3       1 <0>        -0.1334
     22 C17        -2.0681   -4.9533    3.4484 C.2       1 <0>         0.5164
     23 O2         -2.5959   -4.3789    2.5198 O.2       1 <0>        -0.5084
     24 N3         -2.7646   -5.1908    4.5775 N.am      1 <0>        -0.7285
     25 C18        -4.1593   -4.7550    4.6832 C.3       1 <0>         0.1020
     26 C19        -4.7128   -5.1444    6.0554 C.3       1 <0>         0.1284
     27 N4         -6.1075   -4.7086    6.1610 N.pl3     1 <0>        -0.3788
     28 C20        -6.5330   -3.5124    6.6182 C.2       1 <0>         0.0876
     29 C21        -7.8847   -3.5038    6.5552 C.2       1 <0>        -0.2646
     30 C22        -8.2994   -4.7370    6.0419 C.2       1 <0>         0.0861
     31 N5         -7.2346   -5.4578    5.7995 N.2       1 <0>        -0.3002
     32 C23        -9.7259   -5.1599    5.8027 C.3       1 <0>        -0.0773
     33 C24        -5.6594   -2.3877    7.1112 C.3       1 <0>        -0.0954
     34 H2         -0.9509    1.6097   -0.0901 H         1 <0>         0.0825
     35 H3          0.8288    1.6161   -0.0582 H         1 <0>         0.0794
     36 H4         -0.0330    1.4968   -1.6110 H         1 <0>         0.0768
     37 H5          0.9767   -0.2923    1.4311 H         1 <0>         0.1422
     38 H6          0.9891   -2.7434    1.6263 H         1 <0>         0.1399
     39 H7         -1.0705   -3.0373   -2.1236 H         1 <0>         0.1475
     40 H8          1.1872   -4.3569    2.7536 H         1 <0>         0.0951
     41 H9         -0.3232   -3.4767    2.3659 H         1 <0>         0.1087
     42 H10        -0.1289   -7.1569    0.5640 H         1 <0>         0.0906
     43 H11         1.3180   -6.7972    1.5563 H         1 <0>         0.0877
     44 H12        -2.5575   -7.3259    3.2044 H         1 <0>         0.0943
     45 H13        -2.4064   -6.5929    1.5887 H         1 <0>         0.1237
     46 H14        -2.8408   -9.0375    1.4385 H         1 <0>         0.1390
     47 H15        -1.2459   -8.6188    0.7689 H         1 <0>         0.1353
     48 H16        -1.7254   -9.5934    3.4942 H         1 <0>         0.4275
     49 H17         0.6614   -9.8721    3.5548 H         1 <0>         0.1407
     50 H18         0.7225   -9.0881    1.9583 H         1 <0>         0.1334
     51 H19         1.1769   -7.4467    3.7532 H         1 <0>         0.1229
     52 H20        -0.3803   -7.8444    4.5197 H         1 <0>         0.0979
     53 H21        -2.3425   -5.6502    5.3202 H         1 <0>         0.4013
     54 H22        -4.2119   -3.6728    4.5640 H         1 <0>         0.0787
     55 H23        -4.7502   -5.2355    3.9034 H         1 <0>         0.0799
     56 H24        -4.6603   -6.2266    6.1745 H         1 <0>         0.0980
     57 H25        -4.1219   -4.6639    6.8352 H         1 <0>         0.0987
     58 H26        -8.5294   -2.6890    6.8498 H         1 <0>         0.1510
     59 H27       -10.0230   -4.8809    4.7917 H         1 <0>         0.0796
     60 H28        -9.8093   -6.2403    5.9206 H         1 <0>         0.0733
     61 H29       -10.3773   -4.6645    6.5226 H         1 <0>         0.0816
     62 H30        -5.4015   -1.7354    6.2769 H         1 <0>         0.0820
     63 H31        -6.1964   -1.8153    7.8675 H         1 <0>         0.0906
     64 H32        -4.7483   -2.7991    7.5458 H         1 <0>         0.0687
     65 H33        -1.1899  -10.5191    2.2429 H         1 <0>         0.4348
@<TRIPOS>BOND
     1    1    2 1
     2    1   34 1
     3    1   35 1
     4    1   36 1
     5    2    7 ar
     6    2    3 ar
     7    3    4 ar
     8    3   37 1
     9    4    5 ar
    10    4   38 1
    11    5    6 ar
    12    5    9 1
    13    6    7 ar
    14    6   39 1
    15    7    8 1
    16    9   10 2
    17    9   11 am
    18   11   16 1
    19   11   12 1
    20   12   13 1
    21   12   40 1
    22   12   41 1
    23   13   14 1
    24   13   15 1
    25   13   22 1
    26   15   21 1
    27   15   16 1
    28   15   17 1
    29   16   42 1
    30   16   43 1
    31   17   18 1
    32   17   44 1
    33   17   45 1
    34   18   19 1
    35   18   46 1
    36   18   47 1
    37   19   20 1
    38   19   48 1
    39   19   65 1
    40   20   21 1
    41   20   49 1
    42   20   50 1
    43   21   51 1
    44   21   52 1
    45   22   23 2
    46   22   24 am
    47   24   25 1
    48   24   53 1
    49   25   26 1
    50   25   54 1
    51   25   55 1
    52   26   27 1
    53   26   56 1
    54   26   57 1
    55   27   31 1
    56   27   28 1
    57   28   29 2
    58   28   33 1
    59   29   30 1
    60   29   58 1
    61   30   31 2
    62   30   32 1
    63   32   59 1
    64   32   60 1
    65   32   61 1
    66   33   62 1
    67   33   63 1
    68   33   64 1
@<TRIPOS>MOLECULE
ZINC39686307
   76    79     0     0     0
SMALL
USER_CHARGES

@<TRIPOS>ATOM
      1 C1          1.5478    5.3615   -2.3326 C.3       1 <0>        -0.1557
      2 C2          2.7230    4.8543   -1.4945 C.3       1 <0>        -0.0806
      3 C3          2.4892    5.2046   -0.0236 C.3       1 <0>        -0.1503
      4 C4          2.8391    3.3362   -1.6450 C.3       1 <0>        -0.1375
      5 C5          3.1910    2.9982   -3.0708 C.2       1 <0>         0.5172
      6 O1          3.3348    3.8843   -3.8863 O.2       1 <0>        -0.5299
      7 N1          3.3460    1.7112   -3.4397 N.am      1 <0>        -0.6198
      8 C6          3.1690    0.6264   -2.4646 C.3       1 <0>         0.1082
      9 C7          4.4198   -0.2579   -2.4785 C.3       1 <0>        -0.1422
     10 C8          4.6865   -0.7350   -3.9080 C.3       1 <0>         0.1429
     11 C9          4.9394    0.4735   -4.8121 C.3       1 <0>        -0.1371
     12 C10         3.6890    1.3659   -4.8260 C.3       1 <0>         0.1116
     13 N2          5.8630   -1.6080   -3.9196 N.am      1 <0>        -0.7276
     14 C11         6.0097   -2.5283   -4.8933 C.2       1 <0>         0.5149
     15 O2          5.1677   -2.6337   -5.7598 O.2       1 <0>        -0.5087
     16 C12         7.2199   -3.4262   -4.9053 C.3       1 <0>        -0.1144
     17 H1          7.5856   -3.5826   -3.8905 H         1 <0>         0.1156
     18 C13         6.8791   -4.7794   -5.5688 C.3       1 <0>         0.1186
     19 N3          7.2943   -4.6185   -6.9822 N.am      1 <0>        -0.6195
     20 C14         8.5610   -3.8515   -6.9093 C.3       1 <0>         0.1026
     21 C15         8.3263   -2.8220   -5.7861 C.3       1 <0>        -0.0720
     22 C16         7.8645   -1.4935   -6.3775 C.3       1 <0>        -0.1490
     23 C17         9.0016   -0.8850   -7.2030 C.3       1 <0>        -0.0093
     24 N4         10.1756   -0.6803   -6.3457 N.4       1 <0>        -0.5051
     25 C18        10.6692   -1.9727   -5.8552 C.3       1 <0>        -0.0098
     26 C19         9.6024   -2.6274   -4.9730 C.3       1 <0>        -0.1343
     27 C20         6.6630   -5.0679   -8.0849 C.2       1 <0>         0.5423
     28 O3          5.5865   -5.6175   -7.9858 O.2       1 <0>        -0.5096
     29 C21         7.2948   -4.8874   -9.4411 C.3       1 <0>        -0.0960
     30 H2          7.8440   -3.9462   -9.4672 H         1 <0>         0.0846
     31 C22         6.2051   -4.8786  -10.5206 C.3       1 <0>        -0.1048
     32 C23         6.8526   -4.5171  -11.8591 C.3       1 <0>        -0.0937
     33 C24         8.0686   -5.3655  -12.0909 C.2       1 <0>        -0.1480
     34 C25         8.6776   -6.0294  -11.1614 C.2       1 <0>        -0.1623
     35 C26         8.2510   -6.0487   -9.7218 C.3       1 <0>        -0.0764
     36 H3          1.7143    5.1119   -3.3805 H         1 <0>         0.0715
     37 H4          0.6266    4.8908   -1.9891 H         1 <0>         0.0491
     38 H5          1.4650    6.4431   -2.2254 H         1 <0>         0.0555
     39 H6          3.6442    5.3250   -1.8381 H         1 <0>         0.0762
     40 H7          1.5680    4.7339    0.3200 H         1 <0>         0.0566
     41 H8          3.3264    4.8433    0.5735 H         1 <0>         0.0541
     42 H9          2.4065    6.2862    0.0836 H         1 <0>         0.0610
     43 H10         3.6186    2.9637   -0.9803 H         1 <0>         0.0924
     44 H11         1.8878    2.8715   -1.3856 H         1 <0>         0.0953
     45 H12         3.0311    1.0487   -1.4693 H         1 <0>         0.0964
     46 H13         2.2973    0.0306   -2.7351 H         1 <0>         0.0770
     47 H14         5.2749    0.3157   -2.1209 H         1 <0>         0.0740
     48 H15         4.2629   -1.1202   -1.8305 H         1 <0>         0.0870
     49 H16         3.8211   -1.2875   -4.2738 H         1 <0>         0.0951
     50 H17         5.7896    1.0403   -4.4326 H         1 <0>         0.0655
     51 H18         5.1524    0.1319   -5.8251 H         1 <0>         0.0758
     52 H19         2.8588    0.8292   -5.2851 H         1 <0>         0.0719
     53 H20         3.8943    2.2763   -5.3892 H         1 <0>         0.0976
     54 H21         6.5364   -1.5236   -3.2266 H         1 <0>         0.3984
     55 H22         7.4407   -5.5859   -5.0973 H         1 <0>         0.0862
     56 H23         5.8084   -4.9740   -5.5071 H         1 <0>         0.0999
     57 H24         9.3905   -4.5104   -6.6529 H         1 <0>         0.0868
     58 H25         8.7543   -3.3455   -7.8552 H         1 <0>         0.0837
     59 H26         6.9991   -1.6618   -7.0186 H         1 <0>         0.1238
     60 H27         7.5940   -0.8110   -5.5718 H         1 <0>         0.0966
     61 H28         9.2606   -1.5608   -8.0180 H         1 <0>         0.1327
     62 H29         8.6804    0.0723   -7.6134 H         1 <0>         0.1389
     63 H30        10.9022   -0.2236   -6.8763 H         1 <0>         0.4345
     64 H31        10.8889   -2.6226   -6.7022 H         1 <0>         0.1329
     65 H32        11.5770   -1.8171   -5.2723 H         1 <0>         0.1404
     66 H33         9.3942   -1.9857   -4.1169 H         1 <0>         0.0972
     67 H34         9.9626   -3.5952   -4.6240 H         1 <0>         0.1226
     68 H35         5.7492   -5.8663  -10.5890 H         1 <0>         0.0796
     69 H36         5.4460   -4.1380  -10.2689 H         1 <0>         0.0719
     70 H37         6.1366   -4.6845  -12.6638 H         1 <0>         0.0818
     71 H38         7.1419   -3.4663  -11.8485 H         1 <0>         0.0733
     72 H39         8.4597   -5.4262  -13.0958 H         1 <0>         0.1086
     73 H40         9.5500   -6.6030  -11.4375 H         1 <0>         0.1099
     74 H41         9.1275   -5.9582   -9.0802 H         1 <0>         0.0726
     75 H42         7.7465   -6.9914   -9.5099 H         1 <0>         0.0826
     76 H43         9.9202   -0.0996   -5.5611 H         1 <0>         0.4282
@<TRIPOS>BOND
     1    1    2 1
     2    1   36 1
     3    1   37 1
     4    1   38 1
     5    2    3 1
     6    2    4 1
     7    2   39 1
     8    3   40 1
     9    3   41 1
    10    3   42 1
    11    4    5 1
    12    4   43 1
    13    4   44 1
    14    5    6 2
    15    5    7 am
    16    7   12 1
    17    7    8 1
    18    8    9 1
    19    8   45 1
    20    8   46 1
    21    9   10 1
    22    9   47 1
    23    9   48 1
    24   10   11 1
    25   10   13 1
    26   10   49 1
    27   11   12 1
    28   11   50 1
    29   11   51 1
    30   12   52 1
    31   12   53 1
    32   13   14 am
    33   13   54 1
    34   14   15 2
    35   14   16 1
    36   16   17 1
    37   16   21 1
    38   16   18 1
    39   18   19 1
    40   18   55 1
    41   18   56 1
    42   19   20 1
    43   19   27 am
    44   20   21 1
    45   20   57 1
    46   20   58 1
    47   21   26 1
    48   21   22 1
    49   22   23 1
    50   22   59 1
    51   22   60 1
    52   23   24 1
    53   23   61 1
    54   23   62 1
    55   24   25 1
    56   24   63 1
    57   24   76 1
    58   25   26 1
    59   25   64 1
    60   25   65 1
    61   26   66 1
    62   26   67 1
    63   27   28 2
    64   27   29 1
    65   29   30 1
    66   29   35 1
    67   29   31 1
    68   31   32 1
    69   31   68 1
    70   31   69 1
    71   32   33 1
    72   32   70 1
    73   32   71 1
    74   33   34 2
    75   33   72 1
    76   34   35 1
    77   34   73 1
    78   35   74 1
    79   35   75 1
@<TRIPOS>MOLECULE
ZINC64626303
   59    62     0     0     0
SMALL
USER_CHARGES

@<TRIPOS>ATOM
      1 C1         -0.4216    1.3338    0.1705 C.3       1 <0>        -0.1830
      2 C2         -0.3206   -0.1647   -0.1216 C.3       1 <0>         0.0816
      3 H1         -1.3001   -0.5776   -0.3628 H         1 <0>         0.1119
      4 C3          0.6880   -0.4357   -1.2660 C.3       1 <0>        -0.0033
      5 H2          0.5088   -1.4123   -1.7158 H         1 <0>         0.0848
      6 N1          1.9943   -0.4124   -0.5623 N.3       1 <0>        -0.6858
      7 C4          1.6948   -0.6687    0.8602 C.3       1 <0>         0.3092
      8 H3          2.0047    0.1862    1.4613 H         1 <0>         0.1256
      9 O1          0.2727   -0.8672    0.9946 O.3       1 <0>        -0.3479
     10 C5          2.4251   -1.9045    1.3191 C.ar      1 <0>        -0.2119
     11 C6          2.5950   -2.9682    0.4546 C.ar      1 <0>        -0.0715
     12 C7          3.2644   -4.1026    0.8750 C.ar      1 <0>        -0.2316
     13 C8          3.7665   -4.1763    2.1616 C.ar      1 <0>        -0.0527
     14 C9          3.6005   -3.1163    3.0309 C.ar      1 <0>        -0.2437
     15 C10         2.9329   -1.9728    2.6100 C.ar      1 <0>         0.3173
     16 N2          2.7678   -0.8967    3.4850 N.2       1 <0>        -1.0954
     17 S1          3.3741   -0.9802    5.0238 S.o2      1 <0>         2.5335
     18 O2          2.6510   -2.0359    5.6417 O.2       1 <0>        -1.0208
     19 O3          4.7822   -1.0688    4.8544 O.2       1 <0>        -1.0255
     20 C11         2.9350    0.6069    5.7846 C.3       1 <0>        -0.6372
     21 C12         0.6175    0.6674   -2.3238 C.3       1 <0>         0.0054
     22 N3          1.6271    0.4166   -3.3610 N.4       1 <0>        -0.3857
     23 C13         1.6573    1.5471   -4.2985 C.3       1 <0>        -0.0595
     24 C14         1.2869   -0.8136   -4.0881 C.3       1 <0>         0.0363
     25 C15         2.3889   -1.1425   -5.0621 C.2       1 <0>        -0.0525
     26 C16         3.4533   -1.9481   -4.8440 C.ar      1 <0>        -0.0873
     27 C17         3.8876   -2.7284   -3.6791 C.ar      1 <0>        -0.0584
     28 C18         5.0251   -3.4550   -3.7634 C.ar      1 <0>        -0.1040
     29 C19         5.7980   -3.4812   -4.9324 C.ar      1 <0>         0.0668
     30 C20         5.4639   -2.7907   -6.0431 C.ar      1 <0>        -0.2067
     31 C21         4.2868   -1.9929   -6.0666 C.ar      1 <0>         0.3347
     32 N4          3.7584   -1.2442   -7.0040 N.pl3     1 <0>        -0.5620
     33 C22         2.5251   -0.6437   -6.4833 C.3       1 <0>         0.0658
     34 H4          0.5654    1.7225    0.4209 H         1 <0>         0.0751
     35 H5         -0.8032    1.8507   -0.7100 H         1 <0>         0.0616
     36 H6         -1.0992    1.4956    1.0089 H         1 <0>         0.0811
     37 H7          2.6173   -1.1143   -0.9329 H         1 <0>         0.3425
     38 H8          2.2042   -2.9140   -0.5508 H         1 <0>         0.0814
     39 H9          3.3953   -4.9332    0.1972 H         1 <0>         0.1016
     40 H10         4.2886   -5.0639    2.4869 H         1 <0>         0.1078
     41 H11         3.9924   -3.1746    4.0355 H         1 <0>         0.1091
     42 H12         1.8511    0.7226    5.7840 H         1 <0>         0.1173
     43 H13         3.3025    0.6321    6.8105 H         1 <0>         0.1074
     44 H14         3.3874    1.4197    5.2165 H         1 <0>         0.1155
     45 H15        -0.3742    0.6741   -2.7761 H         1 <0>         0.1423
     46 H16         0.8097    1.6327   -1.8555 H         1 <0>         0.1554
     47 H17         1.7904    2.4758   -3.7436 H         1 <0>         0.1417
     48 H18         2.4851    1.4188   -4.9959 H         1 <0>         0.1104
     49 H19         0.7188    1.5857   -4.8516 H         1 <0>         0.1331
     50 H20         1.1711   -1.6341   -3.3799 H         1 <0>         0.1626
     51 H21         0.3533   -0.6681   -4.6315 H         1 <0>         0.1687
     52 H22         3.3075   -2.7221   -2.7681 H         1 <0>         0.1671
     53 H23         5.3465   -4.0299   -2.9075 H         1 <0>         0.1734
     54 H24         6.6981   -4.0780   -4.9448 H         1 <0>         0.1728
     55 H25         6.0941   -2.8441   -6.9186 H         1 <0>         0.1705
     56 H26         1.6690   -0.9638   -7.0774 H         1 <0>         0.1837
     57 H27         2.6053    0.4432   -6.4940 H         1 <0>         0.1722
     58 H28         4.1201   -1.1123   -7.8943 H         1 <0>         0.4640
     59 H29         2.5335    0.3128   -2.9299 H         1 <0>         0.4350
@<TRIPOS>BOND
     1    1    2 1
     2    1   34 1
     3    1   35 1
     4    1   36 1
     5    2    3 1
     6    2    9 1
     7    2    4 1
     8    4    5 1
     9    4    6 1
    10    4   21 1
    11    6    7 1
    12    6   37 1
    13    7    8 1
    14    7    9 1
    15    7   10 1
    16   10   15 ar
    17   10   11 ar
    18   11   12 ar
    19   11   38 1
    20   12   13 ar
    21   12   39 1
    22   13   14 ar
    23   13   40 1
    24   14   15 ar
    25   14   41 1
    26   15   16 1
    27   16   17 1
    28   17   18 2
    29   17   19 2
    30   17   20 1
    31   20   42 1
    32   20   43 1
    33   20   44 1
    34   21   22 1
    35   21   45 1
    36   21   46 1
    37   22   23 1
    38   22   24 1
    39   22   59 1
    40   23   47 1
    41   23   48 1
    42   23   49 1
    43   24   25 1
    44   24   50 1
    45   24   51 1
    46   25   33 1
    47   25   26 2
    48   26   31 ar
    49   26   27 ar
    50   27   28 ar
    51   27   52 1
    52   28   29 ar
    53   28   53 1
    54   29   30 ar
    55   29   54 1
    56   30   31 ar
    57   30   55 1
    58   31   32 2
    59   32   33 1
    60   32   58 1
    61   33   56 1
    62   33   57 1
@<TRIPOS>MOLECULE
ZINC21123131
   48    51     0     0     0
SMALL
USER_CHARGES
(3R)-1-(4-chlorophenyl)-3-[2-(5-methyl-1H-indol-3-yl)ethylamino]pyrrolidine-2,5-dione
@<TRIPOS>ATOM
      1 C1          1.1829    6.9065   -0.1223 C.3       1 <0>        -0.1179
      2 C2          0.5174    5.5547   -0.1498 C.ar      1 <0>        -0.0971
      3 C3         -0.8678    5.4697   -0.1866 C.ar      1 <0>        -0.0951
      4 C4         -1.4961    4.2442   -0.2122 C.ar      1 <0>        -0.1173
      5 C5         -0.7372    3.0782   -0.2012 C.ar      1 <0>         0.0826
      6 C6          0.6661    3.1697   -0.1639 C.ar      1 <0>        -0.0971
      7 C7          1.2820    4.4225   -0.1381 C.ar      1 <0>        -0.0887
      8 C8          1.1616    1.7912   -0.1621 C.2       1 <0>        -0.2145
      9 C9          0.0868    0.9878   -0.1966 C.2       1 <0>         0.1005
     10 N1         -1.0564    1.7391   -0.2263 N.pl3     1 <0>        -0.5998
     11 H1         -2.1100    1.4255   -0.2646 H         1 <0>         0.4519
     12 C10         2.6044    1.3574   -0.1284 C.3       1 <0>        -0.0539
     13 C11         3.0919    1.3195    1.3214 C.3       1 <0>        -0.0094
     14 N2          4.4983    0.8966    1.3542 N.4       1 <0>        -0.5324
     15 C12         5.0016    0.8486    2.7334 C.3       1 <0>         0.0013
     16 H2          4.4687    1.6641    3.2443 H         1 <0>         0.1860
     17 C13         6.5387    0.9726    2.7550 C.3       1 <0>        -0.1645
     18 C14         6.9877   -0.3350    3.3788 C.2       1 <0>         0.5222
     19 O1          8.1386   -0.6556    3.5845 O.2       1 <0>        -0.4191
     20 N3          5.9122   -1.0780    3.6682 N.am      1 <0>        -0.5147
     21 C15         4.7431   -0.5098    3.3477 C.2       1 <0>         0.5133
     22 O2          3.6505   -1.0051    3.5223 O.2       1 <0>        -0.4207
     23 C16         6.0029   -2.3468    4.2585 C.ar      1 <0>         0.0867
     24 C17         5.5400   -2.5465    5.5519 C.ar      1 <0>        -0.0805
     25 C18         5.6260   -3.7982    6.1294 C.ar      1 <0>        -0.0957
     26 C19         6.1826   -4.8503    5.4235 C.ar      1 <0>        -0.0139
     27 C20         6.6495   -4.6524    4.1359 C.ar      1 <0>        -0.0964
     28 C21         6.5609   -3.4038    3.5523 C.ar      1 <0>        -0.0809
     29 Cl1         6.2949   -6.4210    6.1542 Cl        1 <0>        -0.0406
     30 H3          0.4147    7.6937   -0.1366 H         1 <0>         0.0686
     31 H4          1.8334    7.0129   -1.0029 H         1 <0>         0.0699
     32 H5          1.7863    6.9996    0.7927 H         1 <0>         0.0682
     33 H6         -1.4588    6.3737   -0.1956 H         1 <0>         0.1298
     34 H7         -2.5743    4.1885   -0.2405 H         1 <0>         0.1251
     35 H8          2.3592    4.4963   -0.1098 H         1 <0>         0.1162
     36 H9          0.1196   -0.0917   -0.2044 H         1 <0>         0.1702
     37 H10         2.6964    0.3552   -0.5725 H         1 <0>         0.0910
     38 H11         3.2151    2.0701   -0.7021 H         1 <0>         0.0932
     39 H12         2.9999    2.3217    1.7655 H         1 <0>         0.1362
     40 H13         2.4812    0.6068    1.8951 H         1 <0>         0.1370
     41 H14         4.5903   -0.1056    0.9101 H         1 <0>         0.4507
     42 H15         6.9110    1.0969    1.7274 H         1 <0>         0.1479
     43 H16         6.8277    1.8461    3.3579 H         1 <0>         0.1648
     44 H17         5.1097   -1.7246    6.1048 H         1 <0>         0.1383
     45 H18         5.2623   -3.9550    7.1341 H         1 <0>         0.1501
     46 H19         7.0832   -5.4751    3.5869 H         1 <0>         0.1502
     47 H20         6.9250   -3.2499    2.5473 H         1 <0>         0.1380
     48 H21         5.1090    1.6093    0.7805 H         1 <0>         0.4603
@<TRIPOS>BOND
     1    1    2 1
     2    1   30 1
     3    1   31 1
     4    1   32 1
     5    2    7 ar
     6    2    3 ar
     7    3    4 ar
     8    3   33 1
     9    4    5 ar
    10    4   34 1
    11    5   10 1
    12    5    6 ar
    13    6    7 ar
    14    6    8 1
    15    7   35 1
    16    8    9 2
    17    8   12 1
    18    9   10 1
    19    9   36 1
    20   10   11 1
    21   12   13 1
    22   12   37 1
    23   12   38 1
    24   13   14 1
    25   13   39 1
    26   13   40 1
    27   14   15 1
    28   14   41 1
    29   14   48 1
    30   15   16 1
    31   15   21 1
    32   15   17 1
    33   17   18 1
    34   17   42 1
    35   17   43 1
    36   18   19 2
    37   18   20 am
    38   20   21 am
    39   20   23 1
    40   21   22 2
    41   23   28 ar
    42   23   24 ar
    43   24   25 ar
    44   24   44 1
    45   25   26 ar
    46   25   45 1
    47   26   27 ar
    48   26   29 1
    49   27   28 ar
    50   27   46 1
    51   28   47 1
@<TRIPOS>MOLECULE
ZINC39609232
   65    68     0     0     0
SMALL
USER_CHARGES

@<TRIPOS>ATOM
      1 C1          2.2855    1.5468   -2.5986 C.3       1 <0>        -0.1224
      2 C2          2.3050    0.0400   -2.6059 C.ar      1 <0>        -0.0801
      3 C3          3.5029   -0.6351   -2.7498 C.ar      1 <0>        -0.1147
      4 C4          3.5209   -2.0171   -2.7565 C.ar      1 <0>        -0.1165
      5 C5          2.3409   -2.7244   -2.6188 C.ar      1 <0>        -0.0951
      6 C6          1.1435   -2.0496   -2.4741 C.ar      1 <0>        -0.1093
      7 C7          1.1261   -0.6671   -2.4631 C.ar      1 <0>        -0.0803
      8 C8         -0.1789    0.0687   -2.2999 C.3       1 <0>        -0.1215
      9 C9          2.3604   -4.2313   -2.6271 C.3       1 <0>        -0.0859
     10 C10         2.5375   -4.7469   -1.1976 C.3       1 <0>         0.1211
     11 N1          2.5564   -6.2118   -1.2056 N.am      1 <0>        -0.7288
     12 C11         2.7031   -6.8902   -0.0503 C.2       1 <0>         0.5187
     13 O1          2.8194   -6.2880    0.9960 O.2       1 <0>        -0.5189
     14 C12         2.7225   -8.3970   -0.0586 C.3       1 <0>        -0.1147
     15 H1          2.1264   -8.7790   -0.8874 H         1 <0>         0.1116
     16 C13         2.1934   -8.9493    1.2840 C.3       1 <0>         0.1120
     17 N2          3.0344  -10.1384    1.5571 N.am      1 <0>        -0.6233
     18 C14         4.3950   -9.7339    1.1292 C.3       1 <0>         0.1064
     19 C15         4.1679   -8.9134   -0.1560 C.3       1 <0>        -0.0718
     20 C16         5.1445   -7.7427   -0.2135 C.3       1 <0>        -0.1469
     21 C17         6.5700   -8.2801   -0.3690 C.3       1 <0>        -0.0076
     22 N3          6.6620   -9.0809   -1.5957 N.4       1 <0>        -0.5043
     23 C18         5.7882  -10.2560   -1.4933 C.3       1 <0>        -0.0110
     24 C19         4.3297   -9.8021   -1.3855 C.3       1 <0>        -0.1333
     25 C20         2.6493  -11.3209    2.0767 C.2       1 <0>         0.5503
     26 O2          3.4633  -12.2046    2.2418 O.2       1 <0>        -0.5288
     27 C21         1.2072  -11.5449    2.4525 C.3       1 <0>        -0.1374
     28 C22         0.8373  -10.9859    3.8365 C.3       1 <0>        -0.1231
     29 C23        -0.0066  -12.2557    4.0369 C.3       1 <0>        -0.1428
     30 C24         0.9313  -12.9430    3.0305 C.3       1 <0>        -0.1184
     31 H2          2.4063    1.9068   -1.5769 H         1 <0>         0.0737
     32 H3          3.1012    1.9238   -3.2155 H         1 <0>         0.0684
     33 H4          1.3347    1.8998   -2.9981 H         1 <0>         0.0715
     34 H5          4.4246   -0.0826   -2.8574 H         1 <0>         0.1237
     35 H6          4.4565   -2.5445   -2.8697 H         1 <0>         0.1180
     36 H7          0.2218   -2.6021   -2.3668 H         1 <0>         0.1218
     37 H8         -0.6191    0.2495   -3.2805 H         1 <0>         0.0736
     38 H9         -0.8623   -0.5322   -1.7000 H         1 <0>         0.0676
     39 H10         0.0009    1.0211   -1.8012 H         1 <0>         0.0717
     40 H11         1.4206   -4.6046   -3.0342 H         1 <0>         0.0801
     41 H12         3.1880   -4.5806   -3.2445 H         1 <0>         0.0758
     42 H13         3.4772   -4.3737   -0.7905 H         1 <0>         0.0731
     43 H14         1.7099   -4.3976   -0.5802 H         1 <0>         0.0756
     44 H15         2.4633   -6.6934   -2.0424 H         1 <0>         0.4004
     45 H16         2.3150   -8.2083    2.0740 H         1 <0>         0.1004
     46 H17         1.1464   -9.2377    1.1901 H         1 <0>         0.0935
     47 H18         4.8678   -9.1193    1.8954 H         1 <0>         0.0834
     48 H19         5.0038  -10.6125    0.9159 H         1 <0>         0.0881
     49 H20         4.9006   -7.1068   -1.0644 H         1 <0>         0.0966
     50 H21         5.0725   -7.1633    0.7070 H         1 <0>         0.1259
     51 H22         7.2684   -7.4453   -0.4270 H         1 <0>         0.1393
     52 H23         6.8191   -8.9025    0.4905 H         1 <0>         0.1334
     53 H24         6.3774   -8.5195   -2.3844 H         1 <0>         0.4274
     54 H25         5.9104  -10.8777   -2.3802 H         1 <0>         0.1398
     55 H26         6.0559  -10.8314   -0.6071 H         1 <0>         0.1340
     56 H27         3.6832  -10.6746   -1.2914 H         1 <0>         0.1177
     57 H28         4.0563   -9.2407   -2.2788 H         1 <0>         0.0961
     58 H29         0.5140  -11.2542    1.6632 H         1 <0>         0.1137
     59 H30         1.6845  -10.9125    4.5185 H         1 <0>         0.0856
     60 H31         0.2463  -10.0710    3.7942 H         1 <0>         0.0774
     61 H32         0.0565  -12.6675    5.0441 H         1 <0>         0.0774
     62 H33        -1.0326  -12.1587    3.6817 H         1 <0>         0.0869
     63 H34         0.4161  -13.6081    2.3374 H         1 <0>         0.0752
     64 H35         1.8041  -13.4047    3.4921 H         1 <0>         0.0957
     65 H36         7.6156   -9.3830   -1.7279 H         1 <0>         0.4344
@<TRIPOS>BOND
     1    1    2 1
     2    1   31 1
     3    1   32 1
     4    1   33 1
     5    2    7 ar
     6    2    3 ar
     7    3    4 ar
     8    3   34 1
     9    4    5 ar
    10    4   35 1
    11    5    6 ar
    12    5    9 1
    13    6    7 ar
    14    6   36 1
    15    7    8 1
    16    8   37 1
    17    8   38 1
    18    8   39 1
    19    9   10 1
    20    9   40 1
    21    9   41 1
    22   10   11 1
    23   10   42 1
    24   10   43 1
    25   11   12 am
    26   11   44 1
    27   12   13 2
    28   12   14 1
    29   14   15 1
    30   14   19 1
    31   14   16 1
    32   16   17 1
    33   16   45 1
    34   16   46 1
    35   17   18 1
    36   17   25 am
    37   18   19 1
    38   18   47 1
    39   18   48 1
    40   19   24 1
    41   19   20 1
    42   20   21 1
    43   20   49 1
    44   20   50 1
    45   21   22 1
    46   21   51 1
    47   21   52 1
    48   22   23 1
    49   22   53 1
    50   22   65 1
    51   23   24 1
    52   23   54 1
    53   23   55 1
    54   24   56 1
    55   24   57 1
    56   25   26 2
    57   25   27 1
    58   27   30 1
    59   27   28 1
    60   27   58 1
    61   28   29 1
    62   28   59 1
    63   28   60 1
    64   29   30 1
    65   29   61 1
    66   29   62 1
    67   30   63 1
    68   30   64 1
@<TRIPOS>MOLECULE
ZINC48854049
   53    56     0     0     0
SMALL
USER_CHARGES

@<TRIPOS>ATOM
      1 C1          4.3735    4.9608   -1.7481 C.2       1 <0>        -0.1709
      2 C2          4.5662    3.6532   -1.3434 C.2       1 <0>        -0.0722
      3 C3          3.7985    3.1545   -0.3439 C.2       1 <0>        -0.2671
      4 S1          2.7622    4.5516    0.0580 S.3       1 <0>         0.0607
      5 C4          3.4224    5.7057   -1.1333 C.2       1 <0>        -0.1087
      6 C5          3.8150    1.7778    0.2688 C.3       1 <0>         0.1279
      7 H1          4.2945    1.0802   -0.4178 H         1 <0>         0.1601
      8 C6          4.5941    1.8147    1.5851 C.3       1 <0>         0.1015
      9 N1          5.9993    2.1265    1.3122 N.am      1 <0>        -0.7000
     10 C7          6.8994    2.1142    2.3153 C.2       1 <0>         0.5212
     11 O1          6.5458    1.8448    3.4446 O.2       1 <0>        -0.4987
     12 C8          8.3319    2.4322    2.0371 C.2       1 <0>         0.5082
     13 O2          8.6855    2.7016    0.9077 O.2       1 <0>        -0.4955
     14 N2          9.2320    2.4199    3.0402 N.am      1 <0>        -0.6335
     15 C9         10.5875    2.6180    2.7650 C.ar      1 <0>         0.1242
     16 C10        10.9736    3.4942    1.7582 C.ar      1 <0>        -0.1140
     17 C11        12.3133    3.6862    1.4913 C.ar      1 <0>        -0.0903
     18 C12        13.2763    3.0090    2.2223 C.ar      1 <0>        -0.0965
     19 C13        12.8954    2.1361    3.2250 C.ar      1 <0>        -0.0778
     20 C14        11.5530    1.9445    3.5003 C.ar      1 <0>        -0.1207
     21 C15        14.1237    1.5278    3.8677 C.3       1 <0>        -0.0841
     22 C16        15.2715    1.7845    2.8683 C.3       1 <0>        -0.1218
     23 C17        14.7866    3.0463    2.1236 C.3       1 <0>        -0.0858
     24 N3          2.4367    1.3405    0.5278 N.4       1 <0>        -0.3915
     25 C18         1.7193    1.1219   -0.7543 C.3       1 <0>        -0.0028
     26 C19         0.5643    0.1689   -0.3563 C.3       1 <0>        -0.1440
     27 C20         1.2256   -0.7576    0.6898 C.3       1 <0>        -0.1423
     28 C21         2.4378    0.0321    1.2174 C.3       1 <0>        -0.0165
     29 H2          4.9747    5.3840   -2.5391 H         1 <0>         0.1536
     30 H3          5.3171    3.0381   -1.8168 H         1 <0>         0.1459
     31 H4          3.1380    6.7314   -1.3165 H         1 <0>         0.2017
     32 H5          4.1718    2.5802    2.2360 H         1 <0>         0.0975
     33 H6          4.5260    0.8433    2.0750 H         1 <0>         0.1052
     34 H7          6.2818    2.3419    0.4096 H         1 <0>         0.4196
     35 H8          8.9388    2.2735    3.9532 H         1 <0>         0.4239
     36 H9         10.2264    4.0235    1.1855 H         1 <0>         0.1391
     37 H10        12.6132    4.3674    0.7087 H         1 <0>         0.1281
     38 H11        11.2556    1.2663    4.2864 H         1 <0>         0.1274
     39 H12        14.3341    2.0165    4.8190 H         1 <0>         0.0847
     40 H13        13.9826    0.4570    4.0147 H         1 <0>         0.0779
     41 H14        16.2063    1.9799    3.3938 H         1 <0>         0.0810
     42 H15        15.3807    0.9463    2.1800 H         1 <0>         0.0743
     43 H16        15.0983    3.0126    1.0797 H         1 <0>         0.0783
     44 H17        15.1751    3.9431    2.6064 H         1 <0>         0.0841
     45 H18         1.3263    2.0624   -1.1405 H         1 <0>         0.1363
     46 H19         2.3742    0.6482   -1.4857 H         1 <0>         0.1370
     47 H20        -0.2599    0.7265    0.0885 H         1 <0>         0.1001
     48 H21         0.2229   -0.4044   -1.2182 H         1 <0>         0.1201
     49 H22         0.5295   -0.9692    1.5015 H         1 <0>         0.1084
     50 H23         1.5536   -1.6850    0.2202 H         1 <0>         0.1069
     51 H24         3.3584   -0.5060    0.9914 H         1 <0>         0.1352
     52 H25         2.3452    0.1794    2.2934 H         1 <0>         0.1381
     53 H26         1.9523    2.0275    1.0858 H         1 <0>         0.4263
@<TRIPOS>BOND
     1    1    5 2
     2    1    2 1
     3    1   29 1
     4    2    3 2
     5    2   30 1
     6    3    4 1
     7    3    6 1
     8    4    5 1
     9    5   31 1
    10    6    7 1
    11    6    8 1
    12    6   24 1
    13    8    9 1
    14    8   32 1
    15    8   33 1
    16    9   10 am
    17    9   34 1
    18   10   11 2
    19   10   12 1
    20   12   13 2
    21   12   14 am
    22   14   15 1
    23   14   35 1
    24   15   20 ar
    25   15   16 ar
    26   16   17 ar
    27   16   36 1
    28   17   18 ar
    29   17   37 1
    30   18   23 1
    31   18   19 ar
    32   19   20 ar
    33   19   21 1
    34   20   38 1
    35   21   22 1
    36   21   39 1
    37   21   40 1
    38   22   23 1
    39   22   41 1
    40   22   42 1
    41   23   43 1
    42   23   44 1
    43   24   28 1
    44   24   25 1
    45   24   53 1
    46   25   26 1
    47   25   45 1
    48   25   46 1
    49   26   27 1
    50   26   47 1
    51   26   48 1
    52   27   28 1
    53   27   49 1
    54   27   50 1
    55   28   51 1
    56   28   52 1
@<TRIPOS>MOLECULE
ZINC48132319
   46    47     0     0     0
SMALL
USER_CHARGES

@<TRIPOS>ATOM
      1 C1         -1.5673    0.4173    0.4625 C.3       1 <0>         0.1012
      2 N1         -0.2457    0.0010   -0.0132 N.pl3     1 <0>        -0.6775
      3 C2          0.9484    0.3117    0.7766 C.3       1 <0>         0.0973
      4 C3         -0.1247   -0.6888   -1.2139 C.ar      1 <0>         0.4257
      5 C4         -0.0933   -2.0798   -1.2099 C.ar      1 <0>        -0.1115
      6 C5          0.0274   -2.7533   -2.4117 C.ar      1 <0>         0.0265
      7 C6          0.1130   -2.0104   -3.5821 C.ar      1 <0>        -0.1259
      8 C7          0.0755   -0.6325   -3.5125 C.ar      1 <0>         0.1438
      9 N2         -0.0457   -0.0164   -2.3517 N.ar      1 <0>        -0.4605
     10 C8         -0.1891   -2.8421    0.0866 C.3       1 <0>         0.1850
     11 N3         -1.5875   -2.8944    0.5202 N.am      1 <0>        -0.7473
     12 C9         -1.9155   -3.5300    1.6625 C.2       1 <0>         0.7097
     13 O1         -1.0508   -4.0600    2.3332 O.2       1 <0>        -0.5711
     14 N4         -3.2020   -3.5780    2.0615 N.am      1 <0>        -0.7391
     15 C10        -3.5585   -4.2689    3.3031 C.3       1 <0>         0.1548
     16 C11        -5.0698   -4.1760    3.5226 C.3       1 <0>        -0.1352
     17 S1         -5.5113   -5.0315    5.0600 S.3       1 <0>        -0.0720
     18 C12        -7.2592   -4.8374    5.1691 C.ar      1 <0>        -0.0867
     19 C13        -7.9464   -4.1481    4.1773 C.ar      1 <0>        -0.1231
     20 C14        -9.3162   -3.9977    4.2655 C.ar      1 <0>        -0.0902
     21 C15       -10.0047   -4.5325    5.3403 C.ar      1 <0>        -0.0381
     22 C16        -9.3231   -5.2196    6.3297 C.ar      1 <0>        -0.0874
     23 C17        -7.9540   -5.3783    6.2441 C.ar      1 <0>        -0.0840
     24 Cl1       -11.7267   -4.3408    5.4480 Cl        1 <0>        -0.0593
     25 H1         -1.7950    1.4117    0.0786 H         1 <0>         0.0580
     26 H2         -2.3192   -0.2890    0.1105 H         1 <0>         0.0634
     27 H3         -1.5710    0.4389    1.5523 H         1 <0>         0.0909
     28 H4          1.0931   -0.4582    1.5346 H         1 <0>         0.0682
     29 H5          1.8189    0.3447    0.1215 H         1 <0>         0.0688
     30 H6          0.8217    1.2796    1.2615 H         1 <0>         0.0859
     31 H7          0.0548   -3.8326   -2.4395 H         1 <0>         0.1818
     32 H8          0.2084   -2.5060   -4.5369 H         1 <0>         0.1913
     33 H9          0.1422   -0.0510   -4.4201 H         1 <0>         0.2118
     34 H10         0.1841   -3.8558   -0.0596 H         1 <0>         0.0997
     35 H11         0.4089   -2.3410    0.8478 H         1 <0>         0.0968
     36 H12        -2.2773   -2.4715   -0.0148 H         1 <0>         0.3940
     37 H13        -3.8918   -3.1552    1.5264 H         1 <0>         0.3974
     38 H14        -3.2652   -5.3163    3.2333 H         1 <0>         0.0840
     39 H15        -3.0404   -3.8016    4.1406 H         1 <0>         0.0835
     40 H16        -5.3632   -3.1286    3.5924 H         1 <0>         0.0965
     41 H17        -5.5879   -4.6433    2.6851 H         1 <0>         0.0970
     42 H18        -7.4096   -3.7302    3.3385 H         1 <0>         0.1291
     43 H19        -9.8507   -3.4617    3.4952 H         1 <0>         0.1378
     44 H20        -9.8631   -5.6355    7.1674 H         1 <0>         0.1432
     45 H21        -7.4233   -5.9186    7.0140 H         1 <0>         0.1409
     46 H22        -0.0736    0.9530   -2.3313 H         1 <0>         0.4448
@<TRIPOS>BOND
     1    1    2 1
     2    1   25 1
     3    1   26 1
     4    1   27 1
     5    2    3 1
     6    2    4 1
     7    3   28 1
     8    3   29 1
     9    3   30 1
    10    4    9 ar
    11    4    5 ar
    12    5    6 ar
    13    5   10 1
    14    6    7 ar
    15    6   31 1
    16    7    8 ar
    17    7   32 1
    18    8    9 ar
    19    8   33 1
    20    9   46 1
    21   10   11 1
    22   10   34 1
    23   10   35 1
    24   11   12 am
    25   11   36 1
    26   12   13 2
    27   12   14 am
    28   14   15 1
    29   14   37 1
    30   15   16 1
    31   15   38 1
    32   15   39 1
    33   16   17 1
    34   16   40 1
    35   16   41 1
    36   17   18 1
    37   18   23 ar
    38   18   19 ar
    39   19   20 ar
    40   19   42 1
    41   20   21 ar
    42   20   43 1
    43   21   22 ar
    44   21   24 1
    45   22   23 ar
    46   22   44 1
    47   23   45 1
@<TRIPOS>MOLECULE
ZINC66876505
   45    48     0     0     0
SMALL
USER_CHARGES

@<TRIPOS>ATOM
      1 C1          0.3069    0.8200    0.1965 C.ar      1 <0>        -0.0584
      2 C2          1.5751    1.3667    0.2198 C.ar      1 <0>        -0.1383
      3 C3          2.6876    0.5392    0.1494 C.ar      1 <0>         0.1855
      4 C4          2.5216   -0.8358    0.0557 C.ar      1 <0>        -0.1358
      5 C5          1.2509   -1.3768    0.0328 C.ar      1 <0>        -0.0581
      6 C6          0.1447   -0.5501    0.1031 C.ar      1 <0>        -0.1814
      7 C7         -1.2403   -1.1434    0.0778 C.3       1 <0>         0.0466
      8 N1         -1.7063   -1.2401   -1.3120 N.4       1 <0>        -0.5105
      9 C8         -3.0564   -1.8185   -1.3366 C.3       1 <0>         0.0814
     10 C9         -3.5283   -1.9322   -2.7633 C.2       1 <0>        -0.3125
     11 C10        -4.4094   -1.1128   -3.3774 C.2       1 <0>         0.1236
     12 N2         -4.5684   -1.5474   -4.6460 N.pl3     1 <0>        -0.4515
     13 H1         -5.1439   -1.1476   -5.3168 H         1 <0>         0.4564
     14 N3         -3.7579   -2.6757   -4.8253 N.2       1 <0>        -0.2526
     15 C11        -3.1243   -2.9080   -3.6952 C.2       1 <0>         0.1387
     16 C12        -2.1579   -4.0064   -3.4458 C.ar      1 <0>        -0.0430
     17 C13        -1.1876   -4.3130   -4.3975 C.ar      1 <0>        -0.0721
     18 C14        -0.2912   -5.3353   -4.1611 C.ar      1 <0>        -0.1031
     19 C15        -0.3549   -6.0556   -2.9807 C.ar      1 <0>        -0.0193
     20 C16        -1.3175   -5.7550   -2.0322 C.ar      1 <0>        -0.1069
     21 C17        -2.2144   -4.7305   -2.2568 C.ar      1 <0>        -0.0985
     22 Cl1         0.7755   -7.3405   -2.6890 Cl        1 <0>        -0.0461
     23 N4          3.9764    1.0914    0.1724 N.pl3     1 <0>        -0.4271
     24 C18         5.1596    0.4022    0.1052 C.2       1 <0>        -0.0569
     25 C19         6.1470    1.3162    0.1586 C.2       1 <0>        -0.0062
     26 N5          5.5878    2.5315    0.2557 N.2       1 <0>        -0.4725
     27 C20         4.2883    2.4106    0.2596 C.2       1 <0>         0.1949
     28 H2         -0.5589    1.4629    0.2557 H         1 <0>         0.1432
     29 H3          1.7012    2.4368    0.2924 H         1 <0>         0.1445
     30 H4          3.3853   -1.4819    0.0005 H         1 <0>         0.1435
     31 H5          1.1212   -2.4465   -0.0400 H         1 <0>         0.1423
     32 H6         -1.2177   -2.1379    0.5235 H         1 <0>         0.1402
     33 H7         -1.9189   -0.5063    0.6450 H         1 <0>         0.1418
     34 H8         -1.7272   -0.3195   -1.7245 H         1 <0>         0.4259
     35 H9         -3.0360   -2.8084   -0.8807 H         1 <0>         0.1364
     36 H10        -3.7374   -1.1756   -0.7789 H         1 <0>         0.1409
     37 H11        -4.9006   -0.2604   -2.9320 H         1 <0>         0.1941
     38 H12        -1.1372   -3.7518   -5.3189 H         1 <0>         0.1403
     39 H13         0.4611   -5.5739   -4.8984 H         1 <0>         0.1451
     40 H14        -1.3638   -6.3203   -1.1131 H         1 <0>         0.1450
     41 H15        -2.9617   -4.4933   -1.5141 H         1 <0>         0.1368
     42 H16         5.2773   -0.6684    0.0248 H         1 <0>         0.1831
     43 H17         7.2061    1.1069    0.1289 H         1 <0>         0.1820
     44 H18         3.5796    3.2230    0.3241 H         1 <0>         0.2130
     45 H19        -1.0782   -1.8298   -1.8371 H         1 <0>         0.4256
@<TRIPOS>BOND
     1    1    6 ar
     2    1    2 ar
     3    1   28 1
     4    2    3 ar
     5    2   29 1
     6    3    4 ar
     7    3   23 1
     8    4    5 ar
     9    4   30 1
    10    5    6 ar
    11    5   31 1
    12    6    7 1
    13    7    8 1
    14    7   32 1
    15    7   33 1
    16    8    9 1
    17    8   34 1
    18    8   45 1
    19    9   10 1
    20    9   35 1
    21    9   36 1
    22   10   15 1
    23   10   11 2
    24   11   12 1
    25   11   37 1
    26   12   13 1
    27   12   14 1
    28   14   15 2
    29   15   16 1
    30   16   21 ar
    31   16   17 ar
    32   17   18 ar
    33   17   38 1
    34   18   19 ar
    35   18   39 1
    36   19   20 ar
    37   19   22 1
    38   20   21 ar
    39   20   40 1
    40   21   41 1
    41   23   27 1
    42   23   24 1
    43   24   25 2
    44   24   42 1
    45   25   26 1
    46   25   43 1
    47   26   27 2
    48   27   44 1
@<TRIPOS>MOLECULE
ZINC20463850
   60    64     0     0     0
SMALL
USER_CHARGES
(1S,2S,3S,4R,5R)-2-[(1-methylpyrrol-2-yl)methylamino]-4-(4-phenylpiperazin-1-yl)-6,8-dioxabicyclo[3.2.1]octan-3-ol
@<TRIPOS>ATOM
      1 C1          5.8573   -1.1624   -1.2340 C.3       1 <0>         0.0553
      2 N1          6.3187   -1.5006    0.1147 N.pl3     1 <0>        -0.4387
      3 C2          7.6199   -1.5601    0.5176 C.2       1 <0>         0.0357
      4 C3          7.6424   -1.9079    1.8203 C.2       1 <0>        -0.1985
      5 C4          6.3060   -2.0632    2.2385 C.2       1 <0>        -0.1355
      6 C5          5.5177   -1.8043    1.1754 C.2       1 <0>        -0.0766
      7 C6          4.0115   -1.8492    1.1608 C.3       1 <0>         0.0801
      8 N2          3.4790   -0.5003    1.3953 N.4       1 <0>        -0.5277
      9 C7          2.0101   -0.5055    1.3877 C.3       1 <0>         0.0148
     10 H1          1.6967   -1.4568    1.8425 H         1 <0>         0.1525
     11 C8          1.5006   -0.3820   -0.0577 C.3       1 <0>         0.0304
     12 H2          1.7405   -1.2820   -0.6429 H         1 <0>         0.1503
     13 C9          0.0021   -0.0041    0.0020 C.3       1 <0>         0.0342
     14 O1         -0.0174    1.4347    0.0099 O.3       1 <0>        -0.3501
     15 C10         1.3537    1.8730   -0.0008 C.3       1 <0>         0.2407
     16 H3          1.4488    2.8099   -0.5693 H         1 <0>         0.1512
     17 O2          2.1047    0.8076   -0.6238 O.3       1 <0>        -0.3576
     18 C11         1.8328    1.9874    1.4546 C.3       1 <0>        -0.0058
     19 H4          1.3792    2.8561    1.9542 H         1 <0>         0.0937
     20 C12         1.4868    0.6896    2.1926 C.3       1 <0>         0.1083
     21 H5          1.8880    0.6909    3.2168 H         1 <0>         0.0868
     22 O3          0.0688    0.5851    2.3346 O.3       1 <0>        -0.5669
     23 N3          3.2869    2.1951    1.4793 N.3       1 <0>        -0.5523
     24 C13         3.7921    2.2189    2.8591 C.3       1 <0>         0.0316
     25 C14         5.3163    2.3571    2.8391 C.3       1 <0>         0.0558
     26 N4          5.6847    3.5875    2.1250 N.pl3     1 <0>        -0.4844
     27 C15         5.1795    3.5636    0.7452 C.3       1 <0>         0.0520
     28 C16         3.6553    3.4255    0.7652 C.3       1 <0>         0.0506
     29 C17         7.0672    3.7850    2.1485 C.ar      1 <0>         0.1001
     30 C18         7.7711    3.9220    0.9588 C.ar      1 <0>        -0.1676
     31 C19         9.1374    4.1219    0.9857 C.ar      1 <0>        -0.0926
     32 C20         9.8062    4.1752    2.1949 C.ar      1 <0>        -0.1357
     33 C21         9.1093    4.0339    3.3809 C.ar      1 <0>        -0.0924
     34 C22         7.7422    3.8391    3.3614 C.ar      1 <0>        -0.1358
     35 H6          6.7256   -0.9651   -1.8799 H         1 <0>         0.1029
     36 H7          5.2218   -0.2656   -1.1900 H         1 <0>         0.0755
     37 H8          5.2781   -2.0025   -1.6448 H         1 <0>         0.0848
     38 H9          8.4837   -1.3668   -0.1012 H         1 <0>         0.1737
     39 H10         8.5230   -2.0424    2.4308 H         1 <0>         0.1483
     40 H11         5.9739   -2.3392    3.2284 H         1 <0>         0.1457
     41 H12         3.6651   -2.2153    0.1831 H         1 <0>         0.1269
     42 H13         3.6571   -2.5260    1.9523 H         1 <0>         0.1459
     43 H14         3.8253   -0.1343    2.3731 H         1 <0>         0.4395
     44 H15        -0.5145   -0.4129   -0.8789 H         1 <0>         0.0945
     45 H16        -0.4453   -0.4218    0.9160 H         1 <0>         0.1312
     46 H17        -0.4871    1.3575    2.8864 H         1 <0>         0.4352
     47 H18         3.3525    3.0726    3.3958 H         1 <0>         0.0738
     48 H19         3.5143    1.2838    3.3675 H         1 <0>         0.0774
     49 H20         5.6938    2.4040    3.8712 H         1 <0>         0.0993
     50 H21         5.7565    1.4889    2.3268 H         1 <0>         0.0489
     51 H22         5.4573    4.4987    0.2368 H         1 <0>         0.0986
     52 H23         5.6190    2.7099    0.2085 H         1 <0>         0.0530
     53 H24         3.2769    3.3779   -0.2666 H         1 <0>         0.0949
     54 H25         3.2142    4.2931    1.2778 H         1 <0>         0.0646
     55 H26         7.2500    3.8760    0.0139 H         1 <0>         0.1235
     56 H27         9.6846    4.2325    0.0613 H         1 <0>         0.1244
     57 H28        10.8752    4.3279    2.2130 H         1 <0>         0.1252
     58 H29         9.6347    4.0757    4.3236 H         1 <0>         0.1273
     59 H30         7.1985    3.7292    4.2880 H         1 <0>         0.1234
     60 H31         3.8334    0.1765    0.6039 H         1 <0>         0.4553
@<TRIPOS>BOND
     1    1    2 1
     2    1   35 1
     3    1   36 1
     4    1   37 1
     5    2    6 1
     6    2    3 1
     7    3    4 2
     8    3   38 1
     9    4    5 1
    10    4   39 1
    11    5    6 2
    12    5   40 1
    13    6    7 1
    14    7    8 1
    15    7   41 1
    16    7   42 1
    17    8    9 1
    18    8   43 1
    19    8   60 1
    20    9   10 1
    21    9   20 1
    22    9   11 1
    23   11   12 1
    24   11   17 1
    25   11   13 1
    26   13   14 1
    27   13   44 1
    28   13   45 1
    29   14   15 1
    30   15   16 1
    31   15   17 1
    32   15   18 1
    33   18   19 1
    34   18   20 1
    35   18   23 1
    36   20   21 1
    37   20   22 1
    38   22   46 1
    39   23   28 1
    40   23   24 1
    41   24   25 1
    42   24   47 1
    43   24   48 1
    44   25   26 1
    45   25   49 1
    46   25   50 1
    47   26   27 1
    48   26   29 1
    49   27   28 1
    50   27   51 1
    51   27   52 1
    52   28   53 1
    53   28   54 1
    54   29   34 ar
    55   29   30 ar
    56   30   31 ar
    57   30   55 1
    58   31   32 ar
    59   31   56 1
    60   32   33 ar
    61   32   57 1
    62   33   34 ar
    63   33   58 1
    64   34   59 1
@<TRIPOS>MOLECULE
ZINC39688231
   59    62     0     0     0
SMALL
USER_CHARGES

@<TRIPOS>ATOM
      1 C1          0.4018    1.7469   -0.1490 C.ar      1 <0>        -0.0771
      2 C2          1.6624    2.3226   -0.1166 C.ar      1 <0>        -0.1404
      3 C3          2.7815    1.5060   -0.0916 C.ar      1 <0>         0.0980
      4 N1          2.6623    0.1963   -0.0981 N.ar      1 <0>        -0.4533
      5 C4          1.4743   -0.3946   -0.1287 C.ar      1 <0>         0.0757
      6 C5          0.3064    0.3643   -0.1551 C.ar      1 <0>        -0.1080
      7 C6          1.3895   -1.8739   -0.1349 C.2       1 <0>         0.6057
      8 O1          0.3044   -2.4201   -0.1629 O.2       1 <0>        -0.5293
      9 N2          2.5158   -2.6135   -0.1095 N.am      1 <0>        -0.6000
     10 C7          3.9171   -2.1333   -0.0674 C.3       1 <0>         0.1018
     11 C8          4.6353   -3.1081    0.8926 C.3       1 <0>        -0.1166
     12 H1          5.6471   -3.3102    0.5413 H         1 <0>         0.1147
     13 C9          3.7888   -4.3915    0.8541 C.3       1 <0>        -0.0731
     14 C10         2.6326   -4.0915   -0.1107 C.3       1 <0>         0.1061
     15 C11         3.2409   -4.7049    2.2431 C.3       1 <0>        -0.1458
     16 C12         2.4505   -6.0154    2.1910 C.3       1 <0>        -0.0095
     17 N3          3.3273   -7.0998    1.7327 N.4       1 <0>        -0.5043
     18 C13         3.7758   -6.8352    0.3603 C.3       1 <0>        -0.0103
     19 C14         4.6220   -5.5592    0.3348 C.3       1 <0>        -0.1336
     20 C15         4.6690   -2.5406    2.2882 C.2       1 <0>         0.5170
     21 O2          3.7797   -1.8077    2.6665 O.2       1 <0>        -0.5124
     22 N4          5.6873   -2.8474    3.1160 N.am      1 <0>        -0.7284
     23 C16         5.7201   -2.2957    4.4728 C.3       1 <0>         0.1212
     24 C17         6.9714   -2.7964    5.1969 C.3       1 <0>         0.0449
     25 O3          8.1355   -2.2784    4.5499 O.3       1 <0>        -0.3103
     26 C18         9.3402   -2.6304    5.0724 C.ar      1 <0>         0.1135
     27 C19         9.3997   -3.4617    6.1811 C.ar      1 <0>        -0.1807
     28 C20        10.6246   -3.8186    6.7111 C.ar      1 <0>        -0.1132
     29 C21        11.7924   -3.3465    6.1363 C.ar      1 <0>         0.0681
     30 C22        11.7344   -2.5162    5.0299 C.ar      1 <0>        -0.1114
     31 C23        10.5110   -2.1631    4.4938 C.ar      1 <0>        -0.1187
     32 F1         12.9895   -3.6959    6.6559 F         1 <0>        -0.1359
     33 H2         -0.4859    2.3618   -0.1645 H         1 <0>         0.1468
     34 H3          1.7712    3.3971   -0.1114 H         1 <0>         0.1452
     35 H4          3.7652    1.9512   -0.0667 H         1 <0>         0.1653
     36 H5         -0.6597   -0.1179   -0.1797 H         1 <0>         0.1484
     37 H6          4.3645   -2.1791   -1.0603 H         1 <0>         0.0831
     38 H7          3.9587   -1.1163    0.3225 H         1 <0>         0.1421
     39 H8          1.7098   -4.5463    0.2496 H         1 <0>         0.0875
     40 H9          2.8710   -4.4535   -1.1108 H         1 <0>         0.0854
     41 H10         4.0677   -4.8064    2.9461 H         1 <0>         0.0937
     42 H11         2.5848   -3.8968    2.5664 H         1 <0>         0.1233
     43 H12         2.0715   -6.2507    3.1856 H         1 <0>         0.1379
     44 H13         1.6143   -5.9079    1.5001 H         1 <0>         0.1347
     45 H14         4.1297   -7.1618    2.3413 H         1 <0>         0.4270
     46 H15         4.3738   -7.6746    0.0055 H         1 <0>         0.1400
     47 H16         2.9082   -6.7084   -0.2872 H         1 <0>         0.1331
     48 H17         4.9395   -5.3534   -0.6874 H         1 <0>         0.1223
     49 H18         5.4986   -5.6912    0.9691 H         1 <0>         0.0972
     50 H19         6.3985   -3.4335    2.8135 H         1 <0>         0.4022
     51 H20         5.7409   -1.2070    4.4219 H         1 <0>         0.0857
     52 H21         4.8322   -2.6170    5.0172 H         1 <0>         0.0918
     53 H22         6.9511   -2.4589    6.2331 H         1 <0>         0.0850
     54 H23         6.9953   -3.8858    5.1700 H         1 <0>         0.0689
     55 H24         8.4890   -3.8296    6.6301 H         1 <0>         0.1359
     56 H25        10.6713   -4.4659    7.5744 H         1 <0>         0.1405
     57 H26        12.6460   -2.1484    4.5827 H         1 <0>         0.1462
     58 H27        10.4662   -1.5194    3.6278 H         1 <0>         0.1425
     59 H28         2.8216   -7.9726    1.7574 H         1 <0>         0.4340
@<TRIPOS>BOND
     1    1    6 ar
     2    1    2 ar
     3    1   33 1
     4    2    3 ar
     5    2   34 1
     6    3    4 ar
     7    3   35 1
     8    4    5 ar
     9    5    6 ar
    10    5    7 1
    11    6   36 1
    12    7    8 2
    13    7    9 am
    14    9   14 1
    15    9   10 1
    16   10   11 1
    17   10   37 1
    18   10   38 1
    19   11   12 1
    20   11   13 1
    21   11   20 1
    22   13   19 1
    23   13   14 1
    24   13   15 1
    25   14   39 1
    26   14   40 1
    27   15   16 1
    28   15   41 1
    29   15   42 1
    30   16   17 1
    31   16   43 1
    32   16   44 1
    33   17   18 1
    34   17   45 1
    35   17   59 1
    36   18   19 1
    37   18   46 1
    38   18   47 1
    39   19   48 1
    40   19   49 1
    41   20   21 2
    42   20   22 am
    43   22   23 1
    44   22   50 1
    45   23   24 1
    46   23   51 1
    47   23   52 1
    48   24   25 1
    49   24   53 1
    50   24   54 1
    51   25   26 1
    52   26   31 ar
    53   26   27 ar
    54   27   28 ar
    55   27   55 1
    56   28   29 ar
    57   28   56 1
    58   29   30 ar
    59   29   32 1
    60   30   31 ar
    61   30   57 1
    62   31   58 1
@<TRIPOS>MOLECULE
ZINC54946796
   60    62     0     0     0
SMALL
USER_CHARGES

@<TRIPOS>ATOM
      1 C1          0.6524    2.3197    0.2332 C.3       1 <0>        -0.1509
      2 C2          0.3534    0.8244    0.1083 C.3       1 <0>        -0.1085
      3 H1          0.7458    0.4526   -0.8382 H         1 <0>         0.0934
      4 C3         -1.1607    0.5998    0.1576 C.3       1 <0>        -0.1301
      5 C4         -1.4455   -0.9042    0.1108 C.3       1 <0>        -0.1096
      6 H2         -1.0903   -1.3126   -0.8353 H         1 <0>         0.0938
      7 C5         -0.7192   -1.5916    1.2689 C.3       1 <0>        -0.0144
      8 N1          0.7257   -1.3618    1.1504 N.4       1 <0>        -0.3798
      9 C6          1.0139    0.0728    1.2659 C.3       1 <0>        -0.0176
     10 C7          1.4247   -2.0878    2.2192 C.3       1 <0>         0.0464
     11 C8          0.8943   -1.6287    3.5789 C.3       1 <0>        -0.1751
     12 C9          1.1828   -3.5899    2.0581 C.3       1 <0>        -0.1802
     13 C10         2.9251   -1.8008    2.1337 C.3       1 <0>         0.1002
     14 N2          3.4182   -2.1709    0.8047 N.am      1 <0>        -0.7240
     15 C11         4.7336   -2.0821    0.5252 C.2       1 <0>         0.5206
     16 O1          5.5097   -1.6956    1.3744 O.2       1 <0>        -0.4848
     17 C12         5.2362   -2.4593   -0.8296 C.2       1 <0>         0.5071
     18 O2          4.4599   -2.8458   -1.6790 O.2       1 <0>        -0.5018
     19 N3          6.5516   -2.3705   -1.1091 N.am      1 <0>        -0.6202
     20 C13         7.0352   -2.8112   -2.3456 C.ar      1 <0>         0.1351
     21 C14         6.2189   -2.7640   -3.4681 C.ar      1 <0>        -0.1228
     22 C15         6.6967   -3.1990   -4.6889 C.ar      1 <0>        -0.0947
     23 C16         7.9869   -3.6837   -4.7977 C.ar      1 <0>        -0.1161
     24 C17         8.8102   -3.7349   -3.6815 C.ar      1 <0>         0.0718
     25 C18         8.3381   -3.2924   -2.4534 C.ar      1 <0>         0.0327
     26 O3          9.1331   -3.3226   -1.3484 O.3       1 <0>        -0.3108
     27 C19        10.2974   -4.1532   -1.4159 C.3       1 <0>         0.0228
     28 C20        10.9964   -3.8921   -2.7570 C.3       1 <0>         0.0184
     29 O4         10.0763   -4.2186   -3.8077 O.3       1 <0>        -0.3008
     30 C21        -2.9514   -1.1431    0.2371 C.3       1 <0>        -0.1508
     31 H3          1.7302    2.4787    0.1996 H         1 <0>         0.0679
     32 H4          0.1803    2.8547   -0.5908 H         1 <0>         0.0789
     33 H5          0.2597    2.6909    1.1798 H         1 <0>         0.0679
     34 H6         -1.5613    1.0180    1.0810 H         1 <0>         0.0837
     35 H7         -1.6294    1.0864   -0.6977 H         1 <0>         0.0959
     36 H8         -1.0753   -1.1827    2.2145 H         1 <0>         0.1345
     37 H9         -0.9200   -2.6625    1.2386 H         1 <0>         0.1340
     38 H10         2.0919    0.2308    1.2330 H         1 <0>         0.1305
     39 H11         0.6216    0.4460    2.2118 H         1 <0>         0.1349
     40 H12        -0.1746   -1.8331    3.6398 H         1 <0>         0.0920
     41 H13         1.4130   -2.1673    4.3720 H         1 <0>         0.1109
     42 H14         1.0667   -0.5585    3.6937 H         1 <0>         0.0866
     43 H15         1.5606   -3.9170    1.0895 H         1 <0>         0.0822
     44 H16         1.7015   -4.1286    2.8512 H         1 <0>         0.1119
     45 H17         0.1139   -3.7944    2.1190 H         1 <0>         0.0906
     46 H18         3.1023   -0.7389    2.3043 H         1 <0>         0.1018
     47 H19         3.4501   -2.3830    2.8911 H         1 <0>         0.1223
     48 H20         2.7978   -2.4798    0.1260 H         1 <0>         0.4067
     49 H21         7.1631   -2.0010   -0.4530 H         1 <0>         0.4289
     50 H22         5.2100   -2.3873   -3.3864 H         1 <0>         0.1550
     51 H23         6.0605   -3.1608   -5.5608 H         1 <0>         0.1416
     52 H24         8.3554   -4.0231   -5.7544 H         1 <0>         0.1418
     53 H25        10.9721   -3.9077   -0.5957 H         1 <0>         0.1278
     54 H26        10.0055   -5.2014   -1.3514 H         1 <0>         0.0811
     55 H27        11.2834   -2.8426   -2.8237 H         1 <0>         0.0830
     56 H28        11.8822   -4.5219   -2.8385 H         1 <0>         0.1281
     57 H29        -3.4679   -0.6500   -0.5864 H         1 <0>         0.0785
     58 H30        -3.1535   -2.2137    0.2037 H         1 <0>         0.0688
     59 H31        -3.3058   -0.7359    1.1840 H         1 <0>         0.0675
     60 H32         1.0460   -1.6965    0.2541 H         1 <0>         0.4155
@<TRIPOS>BOND
     1    1    2 1
     2    1   31 1
     3    1   32 1
     4    1   33 1
     5    2    3 1
     6    2    9 1
     7    2    4 1
     8    4    5 1
     9    4   34 1
    10    4   35 1
    11    5    6 1
    12    5    7 1
    13    5   30 1
    14    7    8 1
    15    7   36 1
    16    7   37 1
    17    8    9 1
    18    8   10 1
    19    8   60 1
    20    9   38 1
    21    9   39 1
    22   10   11 1
    23   10   12 1
    24   10   13 1
    25   11   40 1
    26   11   41 1
    27   11   42 1
    28   12   43 1
    29   12   44 1
    30   12   45 1
    31   13   14 1
    32   13   46 1
    33   13   47 1
    34   14   15 am
    35   14   48 1
    36   15   16 2
    37   15   17 1
    38   17   18 2
    39   17   19 am
    40   19   20 1
    41   19   49 1
    42   20   25 ar
    43   20   21 ar
    44   21   22 ar
    45   21   50 1
    46   22   23 ar
    47   22   51 1
    48   23   24 ar
    49   23   52 1
    50   24   29 1
    51   24   25 ar
    52   25   26 1
    53   26   27 1
    54   27   28 1
    55   27   53 1
    56   27   54 1
    57   28   29 1
    58   28   55 1
    59   28   56 1
    60   30   57 1
    61   30   58 1
    62   30   59 1
@<TRIPOS>MOLECULE
ZINC65441205
   62    64     0     0     0
SMALL
USER_CHARGES

@<TRIPOS>ATOM
      1 C1          0.0531   -2.9646   -2.3634 C.3       1 <0>        -0.1059
      2 C2          0.0482   -2.1126   -1.1205 C.ar      1 <0>         0.1611
      3 C3          0.0341   -0.7364   -1.2373 C.ar      1 <0>        -0.2011
      4 C4          0.0296    0.0430   -0.0889 C.ar      1 <0>        -0.0433
      5 C5          0.0395   -0.5926    1.1405 C.ar      1 <0>        -0.2141
      6 C6          0.0535   -1.9818    1.1832 C.ar      1 <0>         0.3594
      7 N1          0.0520   -2.6906    0.0652 N.ar      1 <0>        -0.4784
      8 N2          0.0641   -2.6348    2.4149 N.am      1 <0>        -0.6626
      9 C7         -0.0249   -3.9787    2.4659 C.2       1 <0>         0.5093
     10 O1         -0.0220   -4.6260    1.4404 O.2       1 <0>        -0.4586
     11 C8         -0.1281   -4.6769    3.7974 C.3       1 <0>        -0.1198
     12 C9         -0.2121   -6.1889    3.5761 C.3       1 <0>        -0.1031
     13 C10        -0.3499   -6.8969    4.9259 C.3       1 <0>        -0.1347
     14 C11         0.8859   -6.6014    5.7815 C.3       1 <0>         0.1093
     15 N3          1.0568   -5.1453    5.8785 N.am      1 <0>        -0.6227
     16 C12         1.1102   -4.3563    4.6403 C.3       1 <0>         0.1370
     17 C13         1.1621   -4.5448    7.0805 C.2       1 <0>         0.7114
     18 O2          1.2073   -3.3319    7.1522 O.2       1 <0>        -0.5821
     19 N4          1.2171   -5.2888    8.2030 N.am      1 <0>        -0.7502
     20 C14         1.4410   -4.6437    9.4991 C.3       1 <0>         0.1411
     21 C15         1.4597   -5.7053   10.6007 C.3       1 <0>        -0.1218
     22 C16         0.0464   -6.3002   10.7966 C.3       1 <0>        -0.1449
     23 C17        -0.0509   -6.4630   12.3343 C.3       1 <0>        -0.0040
     24 N5          0.6562   -5.2623   12.8486 N.4       1 <0>        -0.3930
     25 C18         1.8176   -5.0645   11.9545 C.3       1 <0>        -0.0010
     26 C19         1.1110   -5.4936   14.2261 C.3       1 <0>         0.0278
     27 C20         1.8672   -4.2615   14.7272 C.3       1 <0>        -0.1842
     28 C21        -0.0991   -5.7503   15.1265 C.3       1 <0>        -0.1831
     29 H1         -0.9734   -3.1763   -2.6629 H         1 <0>         0.0805
     30 H2          0.5635   -2.4329   -3.1664 H         1 <0>         0.0777
     31 H3          0.5727   -3.9010   -2.1600 H         1 <0>         0.0795
     32 H4          0.0269   -0.2717   -2.2122 H         1 <0>         0.1376
     33 H5          0.0190    1.1210   -0.1532 H         1 <0>         0.1401
     34 H6          0.0368   -0.0169    2.0543 H         1 <0>         0.1354
     35 H7          0.1355   -2.1220    3.2351 H         1 <0>         0.4170
     36 H8         -1.0219   -4.3350    4.3192 H         1 <0>         0.1046
     37 H9         -1.0788   -6.4176    2.9559 H         1 <0>         0.0811
     38 H10         0.6931   -6.5336    3.0760 H         1 <0>         0.0779
     39 H11        -1.2416   -6.5346    5.4373 H         1 <0>         0.0691
     40 H12        -0.4331   -7.9719    4.7660 H         1 <0>         0.0864
     41 H13         0.7489   -7.0204    6.7784 H         1 <0>         0.0749
     42 H14         1.7671   -7.0424    5.3154 H         1 <0>         0.0782
     43 H15         2.0096   -4.6142    4.0811 H         1 <0>         0.0783
     44 H16         1.1212   -3.2939    4.8841 H         1 <0>         0.0999
     45 H17         1.1085   -6.2514    8.1526 H         1 <0>         0.3986
     46 H18         2.3965   -4.1193    9.4837 H         1 <0>         0.0800
     47 H19         0.6389   -3.9319    9.6941 H         1 <0>         0.0754
     48 H20         2.1724   -6.4925   10.3546 H         1 <0>         0.1194
     49 H21        -0.7159   -5.6114   10.4326 H         1 <0>         0.1027
     50 H22        -0.0374   -7.2671   10.3003 H         1 <0>         0.1177
     51 H23        -1.0924   -6.4634   12.6560 H         1 <0>         0.1368
     52 H24         0.4529   -7.3740   12.6574 H         1 <0>         0.1349
     53 H25         2.6972   -5.5519   12.3750 H         1 <0>         0.1371
     54 H26         2.0075   -3.9994   11.8225 H         1 <0>         0.1365
     55 H27         1.7719   -6.3601   14.2499 H         1 <0>         0.1358
     56 H28         1.2063   -3.3950   14.7034 H         1 <0>         0.0810
     57 H29         2.2047   -4.4331   15.7493 H         1 <0>         0.1052
     58 H30         2.7293   -4.0786   14.0858 H         1 <0>         0.0808
     59 H31        -0.6378   -6.6281   14.7695 H         1 <0>         0.0804
     60 H32         0.2384   -5.9219   16.1486 H         1 <0>         0.1053
     61 H33        -0.7600   -4.8838   15.1027 H         1 <0>         0.0807
     62 H34         0.0480   -4.4581   12.8120 H         1 <0>         0.4259
@<TRIPOS>BOND
     1    1    2 1
     2    1   29 1
     3    1   30 1
     4    1   31 1
     5    2    7 ar
     6    2    3 ar
     7    3    4 ar
     8    3   32 1
     9    4    5 ar
    10    4   33 1
    11    5    6 ar
    12    5   34 1
    13    6    7 ar
    14    6    8 1
    15    8    9 am
    16    8   35 1
    17    9   10 2
    18    9   11 1
    19   11   16 1
    20   11   12 1
    21   11   36 1
    22   12   13 1
    23   12   37 1
    24   12   38 1
    25   13   14 1
    26   13   39 1
    27   13   40 1
    28   14   15 1
    29   14   41 1
    30   14   42 1
    31   15   16 1
    32   15   17 am
    33   16   43 1
    34   16   44 1
    35   17   18 2
    36   17   19 am
    37   19   20 1
    38   19   45 1
    39   20   21 1
    40   20   46 1
    41   20   47 1
    42   21   25 1
    43   21   22 1
    44   21   48 1
    45   22   23 1
    46   22   49 1
    47   22   50 1
    48   23   24 1
    49   23   51 1
    50   23   52 1
    51   24   25 1
    52   24   26 1
    53   24   62 1
    54   25   53 1
    55   25   54 1
    56   26   27 1
    57   26   28 1
    58   26   55 1
    59   27   56 1
    60   27   57 1
    61   27   58 1
    62   28   59 1
    63   28   60 1
    64   28   61 1
@<TRIPOS>MOLECULE
ZINC67427797
   53    56     0     0     0
SMALL
USER_CHARGES

@<TRIPOS>ATOM
      1 C1         -0.0143    1.3818    0.0614 C.ar      1 <0>        -0.0838
      2 C2          0.9878    1.8014   -0.7951 C.ar      1 <0>        -0.1097
      3 C3          2.1951    1.1340   -0.8284 C.ar      1 <0>        -0.0598
      4 C4          2.4042    0.0349    0.0040 C.ar      1 <0>        -0.0571
      5 C5          1.3904   -0.3831    0.8656 C.ar      1 <0>        -0.1021
      6 C6          0.1872    0.2921    0.8895 C.ar      1 <0>        -0.1153
      7 C7          3.6974   -0.6859   -0.0273 C.2       1 <0>         0.3568
      8 N1          4.8715   -0.1348   -0.1267 N.2       1 <0>        -0.2759
      9 O1          5.8380   -1.1712   -0.1207 O.3       1 <0>        -0.1249
     10 C8          5.1751   -2.3354   -0.0143 C.2       1 <0>         0.6090
     11 O2          5.6742   -3.4438    0.0226 O.2       1 <0>        -0.4763
     12 N2          3.8589   -2.0545    0.0502 N.am      1 <0>        -0.5595
     13 C9          2.7798   -3.0372    0.1772 C.3       1 <0>         0.0860
     14 C10         2.4132   -3.5739   -1.2079 C.3       1 <0>         0.0598
     15 H1          3.2859   -4.0485   -1.6563 H         1 <0>         0.1340
     16 C11         1.2862   -4.6002   -1.0753 C.3       1 <0>        -0.0413
     17 N3          1.0158   -5.2028   -2.3874 N.4       1 <0>        -0.3817
     18 C12        -0.1382   -6.1098   -2.2843 C.3       1 <0>        -0.0031
     19 C13        -0.5630   -6.5223   -3.6960 C.3       1 <0>        -0.1133
     20 C14         0.6396   -6.9945   -4.4660 C.2       1 <0>        -0.0438
     21 C15         1.8702   -6.7421   -4.0742 C.2       1 <0>        -0.1859
     22 C16         2.1877   -5.9690   -2.8268 C.3       1 <0>         0.0310
     23 C17         0.4318   -7.7701   -5.7065 C.ar      1 <0>        -0.0958
     24 C18        -0.1731   -7.1716   -6.8129 C.ar      1 <0>        -0.0820
     25 C19        -0.3653   -7.8984   -7.9684 C.ar      1 <0>        -0.1438
     26 C20         0.0421   -9.2243   -8.0326 C.ar      1 <0>         0.1283
     27 C21         0.6438   -9.8235   -6.9339 C.ar      1 <0>        -0.1435
     28 C22         0.8451   -9.1015   -5.7769 C.ar      1 <0>        -0.0807
     29 O3         -0.1490   -9.9374   -9.1731 O.3       1 <0>        -0.4973
     30 O4          1.9791   -2.4943   -2.0375 O.3       1 <0>        -0.5408
     31 H2         -0.9561    1.9098    0.0869 H         1 <0>         0.1369
     32 H3          0.8246    2.6528   -1.4393 H         1 <0>         0.1406
     33 H4          2.9764    1.4621   -1.4980 H         1 <0>         0.1387
     34 H5          1.5466   -1.2336    1.5125 H         1 <0>         0.1301
     35 H6         -0.5988   -0.0308    1.5561 H         1 <0>         0.1377
     36 H7          3.1109   -3.8607    0.8100 H         1 <0>         0.1229
     37 H8          1.9070   -2.5626    0.6257 H         1 <0>         0.1198
     38 H9          1.5842   -5.3783   -0.3726 H         1 <0>         0.1482
     39 H10         0.3859   -4.1061   -0.7099 H         1 <0>         0.1430
     40 H11         0.1419   -6.9950   -1.7132 H         1 <0>         0.1353
     41 H12        -0.9631   -5.5976   -1.7890 H         1 <0>         0.1386
     42 H13        -1.2940   -7.3284   -3.6342 H         1 <0>         0.1278
     43 H14        -1.0077   -5.6676   -4.2057 H         1 <0>         0.1074
     44 H15         2.6885   -7.1075   -4.6770 H         1 <0>         0.1525
     45 H16         3.0118   -5.2843   -3.0271 H         1 <0>         0.1398
     46 H17         2.4818   -6.6618   -2.0384 H         1 <0>         0.1413
     47 H18        -0.4906   -6.1404   -6.7636 H         1 <0>         0.1282
     48 H19        -0.8336   -7.4361   -8.8247 H         1 <0>         0.1367
     49 H20         0.9590  -10.8551   -6.9875 H         1 <0>         0.1371
     50 H21         1.3175   -9.5667   -4.9244 H         1 <0>         0.1301
     51 H22         0.5879   -9.8862   -9.7971 H         1 <0>         0.4001
     52 H23         1.2043   -2.0251   -1.6990 H         1 <0>         0.3887
     53 H24         0.8167   -4.4759   -3.0583 H         1 <0>         0.4311
@<TRIPOS>BOND
     1    1    6 ar
     2    1    2 ar
     3    1   31 1
     4    2    3 ar
     5    2   32 1
     6    3    4 ar
     7    3   33 1
     8    4    5 ar
     9    4    7 1
    10    5    6 ar
    11    5   34 1
    12    6   35 1
    13    7   12 1
    14    7    8 2
    15    8    9 1
    16    9   10 1
    17   10   11 2
    18   10   12 am
    19   12   13 1
    20   13   14 1
    21   13   36 1
    22   13   37 1
    23   14   15 1
    24   14   16 1
    25   14   30 1
    26   16   17 1
    27   16   38 1
    28   16   39 1
    29   17   22 1
    30   17   18 1
    31   17   53 1
    32   18   19 1
    33   18   40 1
    34   18   41 1
    35   19   20 1
    36   19   42 1
    37   19   43 1
    38   20   21 2
    39   20   23 1
    40   21   22 1
    41   21   44 1
    42   22   45 1
    43   22   46 1
    44   23   28 ar
    45   23   24 ar
    46   24   25 ar
    47   24   47 1
    48   25   26 ar
    49   25   48 1
    50   26   27 ar
    51   26   29 1
    52   27   28 ar
    53   27   49 1
    54   28   50 1
    55   29   51 1
    56   30   52 1
@<TRIPOS>MOLECULE
ZINC37550083
   33    34     0     0     0
SMALL
USER_CHARGES

@<TRIPOS>ATOM
      1 C1         -0.0195    1.4036   -0.0177 C.ar      1 <0>        -0.0802
      2 C2          1.1679    2.1045   -0.0154 C.ar      1 <0>        -0.1010
      3 C3          2.3786    1.4238   -0.0231 C.ar      1 <0>         0.1238
      4 C4          2.3975    0.0317   -0.0333 C.ar      1 <0>         0.0754
      5 C5          1.2125   -0.6749   -0.0362 C.ar      1 <0>        -0.1097
      6 C6         -0.0053    0.0081   -0.0280 C.ar      1 <0>         0.0347
      7 C7         -1.2372   -0.7218   -0.0300 C.1       1 <0>        -0.1453
      8 C8         -2.2472   -1.3203   -0.0316 C.1       1 <0>        -0.1360
      9 C9         -3.5136   -2.0707   -0.0337 C.3       1 <0>        -0.0101
     10 C10        -3.2171   -3.5716   -0.0455 C.3       1 <0>         0.0802
     11 O1         -4.4465   -4.3001   -0.0475 O.3       1 <0>        -0.5735
     12 F1          3.5768   -0.6275   -0.0408 F         1 <0>        -0.1327
     13 N1          3.5815    2.1384   -0.0211 N.am      1 <0>        -0.6603
     14 C11         3.6211    3.3897    0.4781 C.2       1 <0>         0.5032
     15 O2          2.6407    3.8593    1.0161 O.2       1 <0>        -0.4807
     16 C12         4.8835    4.2053    0.3679 C.3       1 <0>         0.1012
     17 N2          4.6715    5.5187    0.9812 N.pl3     1 <0>        -0.3083
     18 C13         5.4175    6.0774    1.9524 C.2       1 <0>         0.1653
     19 N3          4.8863    7.2479    2.2084 N.2       1 <0>        -0.3017
     20 N4          3.8673    7.4003    1.4349 N.2       1 <0>        -0.0697
     21 N5          3.7379    6.3596    0.6882 N.2       1 <0>        -0.0660
     22 H1         -0.9601    1.9342   -0.0072 H         1 <0>         0.1409
     23 H2          1.1565    3.1845   -0.0078 H         1 <0>         0.1620
     24 H3          1.2268   -1.7548   -0.0445 H         1 <0>         0.1467
     25 H4         -4.0858   -1.8203    0.8596 H         1 <0>         0.1001
     26 H5         -4.0905   -1.8074   -0.9203 H         1 <0>         0.0996
     27 H6         -2.6449   -3.8219   -0.9388 H         1 <0>         0.0516
     28 H7         -2.6402   -3.8349    0.8411 H         1 <0>         0.0520
     29 H8         -4.3345   -5.2605   -0.0548 H         1 <0>         0.3869
     30 H9          4.3869    1.7333   -0.3790 H         1 <0>         0.4197
     31 H10         5.6948    3.6906    0.8827 H         1 <0>         0.1502
     32 H11         5.1432    4.3328   -0.6831 H         1 <0>         0.1438
     33 H12         6.2849    5.6448    2.4286 H         1 <0>         0.2378
@<TRIPOS>BOND
     1    1    6 ar
     2    1    2 ar
     3    1   22 1
     4    2    3 ar
     5    2   23 1
     6    3    4 ar
     7    3   13 1
     8    4    5 ar
     9    4   12 1
    10    5    6 ar
    11    5   24 1
    12    6    7 1
    13    7    8 3
    14    8    9 1
    15    9   10 1
    16    9   25 1
    17    9   26 1
    18   10   11 1
    19   10   27 1
    20   10   28 1
    21   11   29 1
    22   13   14 am
    23   13   30 1
    24   14   15 2
    25   14   16 1
    26   16   17 1
    27   16   31 1
    28   16   32 1
    29   17   21 1
    30   17   18 1
    31   18   19 2
    32   18   33 1
    33   19   20 1
    34   20   21 2
@<TRIPOS>MOLECULE
ZINC40789280
   38    40     0     0     0
SMALL
USER_CHARGES

@<TRIPOS>ATOM
      1 C1         -0.0167    1.3784    0.0096 C.ar      1 <0>        -0.1093
      2 C2          1.1690    2.0900    0.0021 C.ar      1 <0>        -0.1083
      3 C3          2.3808    1.4240   -0.0194 C.ar      1 <0>        -0.1051
      4 C4          2.4075    0.0398   -0.0303 C.ar      1 <0>         0.0732
      5 C5          1.2132   -0.6772   -0.0117 C.ar      1 <0>         0.0885
      6 C6          0.0021   -0.0041    0.0020 C.ar      1 <0>        -0.1231
      7 N1          1.2496   -2.0781    0.0120 N.am      1 <0>        -0.6570
      8 C7          2.4248   -2.7028    0.2352 C.2       1 <0>         0.4961
      9 O1          2.4980   -3.9106    0.1508 O.2       1 <0>        -0.5006
     10 C8          3.6467   -1.8935    0.5894 C.3       1 <0>         0.1004
     11 H1          4.5413   -2.4294    0.2722 H         1 <0>         0.1583
     12 O2          3.5926   -0.6264   -0.0698 O.3       1 <0>        -0.2791
     13 C9          3.6928   -1.6772    2.1033 C.3       1 <0>        -0.1696
     14 C10         4.9746   -0.9755    2.4717 C.2       1 <0>         0.5226
     15 O3          5.7727   -0.6777    1.6084 O.2       1 <0>        -0.5111
     16 N2          5.2341   -0.6788    3.7605 N.am      1 <0>        -0.7186
     17 C11         6.4802    0.0033    4.1186 C.3       1 <0>         0.1423
     18 H2          6.7597    0.6987    3.3272 H         1 <0>         0.1165
     19 C12         7.5995   -1.0316    4.3198 C.3       1 <0>        -0.1416
     20 C13         8.8183   -0.3648    5.0020 C.3       1 <0>        -0.5735
     21 S1          8.0455    0.9940    5.9710 S.o2      1 <0>         2.3785
     22 O4          8.5213    2.2400    5.4806 O.2       1 <0>        -0.9273
     23 O5          8.1608    0.6976    7.3559 O.2       1 <0>        -0.9308
     24 C14         6.2904    0.7768    5.4547 C.3       1 <0>        -0.5965
     25 H3         -0.9600    1.9040    0.0260 H         1 <0>         0.1338
     26 H4          1.1485    3.1697    0.0127 H         1 <0>         0.1356
     27 H5          3.3050    1.9829   -0.0281 H         1 <0>         0.1400
     28 H6         -0.9250   -0.5580    0.0071 H         1 <0>         0.1340
     29 H7          0.4396   -2.5925   -0.1301 H         1 <0>         0.4179
     30 H8          2.8434   -1.0664    2.4091 H         1 <0>         0.1071
     31 H9          3.6480   -2.6414    2.6096 H         1 <0>         0.1210
     32 H10         4.5958   -0.9170    4.4510 H         1 <0>         0.4073
     33 H11         7.2329   -1.8437    4.9477 H         1 <0>         0.0907
     34 H12         7.9007   -1.4317    3.3517 H         1 <0>         0.1036
     35 H13         9.3257   -1.0693    5.6610 H         1 <0>         0.1457
     36 H14         9.5072    0.0346    4.2576 H         1 <0>         0.1438
     37 H15         5.8069    1.7393    5.2877 H         1 <0>         0.1490
     38 H16         5.7369    0.1806    6.1802 H         1 <0>         0.1457
@<TRIPOS>BOND
     1    1    6 ar
     2    1    2 ar
     3    1   25 1
     4    2    3 ar
     5    2   26 1
     6    3    4 ar
     7    3   27 1
     8    4   12 1
     9    4    5 ar
    10    5    6 ar
    11    5    7 1
    12    6   28 1
    13    7    8 am
    14    7   29 1
    15    8    9 2
    16    8   10 1
    17   10   11 1
    18   10   12 1
    19   10   13 1
    20   13   14 1
    21   13   30 1
    22   13   31 1
    23   14   15 2
    24   14   16 am
    25   16   17 1
    26   16   32 1
    27   17   18 1
    28   17   24 1
    29   17   19 1
    30   19   20 1
    31   19   33 1
    32   19   34 1
    33   20   21 1
    34   20   35 1
    35   20   36 1
    36   21   22 2
    37   21   23 2
    38   21   24 1
    39   24   37 1
    40   24   38 1
@<TRIPOS>MOLECULE
ZINC45202169
   36    39     0     0     0
SMALL
USER_CHARGES

@<TRIPOS>ATOM
      1 C1         -0.0161    1.3371    0.0094 C.2       1 <0>         0.0028
      2 C2          1.2587    1.7711   -0.0004 C.2       1 <0>         0.0784
      3 N1          2.0558    0.6583   -0.0140 N.pl3     1 <0>        -0.5107
      4 C3          1.2397   -0.4176   -0.0120 C.cat     1 <0>         0.2923
      5 N2          0.0021   -0.0041    0.0020 N.pl3     1 <0>        -0.4713
      6 H1          3.0256    0.6452   -0.0234 H         1 <0>         0.4633
      7 C4          1.7192    3.2060    0.0024 C.3       1 <0>        -0.0912
      8 C5          1.7689    3.7228    1.4416 C.3       1 <0>         0.1436
      9 N3          2.2165    5.1177    1.4444 N.am      1 <0>        -0.6439
     10 C6          3.6330    5.5470    1.5338 C.3       1 <0>         0.1448
     11 C7          3.6126    6.9649    1.0549 C.3       1 <0>         0.0830
     12 C8          4.5942    8.0070    1.4557 C.2       1 <0>        -0.1773
     13 C9          4.3478    9.0166    0.6115 C.2       1 <0>        -0.1613
     14 C10         3.2310    8.5583   -0.3335 C.3       1 <0>         0.1106
     15 H2          3.1892    9.0723   -1.2938 H         1 <0>         0.1345
     16 O1          3.5073    7.1117   -0.3867 O.3       1 <0>        -0.3374
     17 C11         1.9043    8.5680    0.4928 C.3       1 <0>        -0.1627
     18 H3          1.7484    9.5362    0.9687 H         1 <0>         0.0862
     19 C12         2.1954    7.4495    1.5362 C.3       1 <0>        -0.1339
     20 H4          2.1930    7.8258    2.5592 H         1 <0>         0.1155
     21 C13         1.3913    6.1919    1.3597 C.2       1 <0>         0.5301
     22 O2          0.1938    6.1441    1.1740 O.2       1 <0>        -0.4490
     23 C14         0.7272    8.2002   -0.3732 C.2       1 <0>         0.5029
     24 O3          0.8909    7.9716   -1.5595 O.co2     1 <0>        -0.6942
     25 O4         -0.3890    8.1312    0.1125 O.co2     1 <0>        -0.6637
     26 H5         -0.8984    1.9597    0.0252 H         1 <0>         0.2272
     27 H6          1.5585   -1.4495   -0.0206 H         1 <0>         0.2636
     28 H7          2.7129    3.2695   -0.4410 H         1 <0>         0.0997
     29 H8          1.0231    3.8121   -0.5774 H         1 <0>         0.1240
     30 H9          0.7752    3.6592    1.8850 H         1 <0>         0.0873
     31 H10         2.4649    3.1167    2.0215 H         1 <0>         0.0763
     32 H11         3.9831    5.4968    2.5648 H         1 <0>         0.0873
     33 H12         4.2596    4.9339    0.8861 H         1 <0>         0.0829
     34 H13         5.3322    7.9608    2.2428 H         1 <0>         0.1520
     35 H14         4.8437    9.9759    0.5986 H         1 <0>         0.1435
     36 H15        -0.7811   -0.5763    0.0069 H         1 <0>         0.4651
@<TRIPOS>BOND
     1    1    5 1
     2    1    2 2
     3    1   26 1
     4    2    3 1
     5    2    7 1
     6    3    4 1
     7    3    6 1
     8    4    5 2
     9    4   27 1
    10    5   36 1
    11    7    8 1
    12    7   28 1
    13    7   29 1
    14    8    9 1
    15    8   30 1
    16    8   31 1
    17    9   21 am
    18    9   10 1
    19   10   11 1
    20   10   32 1
    21   10   33 1
    22   11   16 1
    23   11   19 1
    24   11   12 1
    25   12   13 2
    26   12   34 1
    27   13   14 1
    28   13   35 1
    29   14   15 1
    30   14   16 1
    31   14   17 1
    32   17   18 1
    33   17   19 1
    34   17   23 1
    35   19   20 1
    36   19   21 1
    37   21   22 2
    38   23   24 2
    39   23   25 1
@<TRIPOS>MOLECULE
ZINC13552080
   27    29     0     0     0
SMALL
USER_CHARGES

@<TRIPOS>ATOM
      1 C1         -0.0158    1.3159    0.0093 C.2       1 <0>         0.0615
      2 C2          1.1833    1.9485    0.0012 C.2       1 <0>        -0.2400
      3 S1          2.2958    0.5522   -0.0169 S.3       1 <0>         0.1189
      4 C3          1.1373   -0.6686   -0.0124 C.2       1 <0>         0.2659
      5 N1          0.0021   -0.0041    0.0020 N.2       1 <0>        -0.5208
      6 N2          1.3325   -2.0448   -0.0216 N.am      1 <0>        -0.6165
      7 C4          0.2716   -2.8760   -0.0160 C.2       1 <0>         0.5273
      8 O1         -0.8535   -2.4232   -0.0028 O.2       1 <0>        -0.4520
      9 C5          0.4833   -4.3680   -0.0260 C.3       1 <0>        -0.1371
     10 S2         -1.1250   -5.2070   -0.0152 S.3       1 <0>         0.0309
     11 C6         -0.7123   -6.9199   -0.0283 C.ar      1 <0>         0.1867
     12 C7         -1.7122   -7.8955   -0.0299 C.ar      1 <0>        -0.0530
     13 C8         -1.3330   -9.2474   -0.0410 C.ar      1 <0>         0.3092
     14 N3         -2.4682   -9.9712   -0.0402 N.2       1 <0>        -0.4874
     15 H1         -3.6606   -7.0999   -0.0151 H         1 <0>         0.4344
     16 C9         -3.4999   -9.1737   -0.0295 C.2       1 <0>         0.3131
     17 N4         -3.0908   -7.8849   -0.0228 N.pl3     1 <0>        -0.5734
     18 N5         -0.0299   -9.5479   -0.0496 N.ar      1 <0>        -0.4831
     19 C10         0.8762   -8.5956   -0.0477 C.ar      1 <0>         0.3159
     20 N6          0.5592   -7.3135   -0.0426 N.ar      1 <0>        -0.5241
     21 H2         -0.9443    1.8674    0.0255 H         1 <0>         0.1779
     22 H3          1.4045    3.0055    0.0045 H         1 <0>         0.2014
     23 H4          2.2323   -2.4069   -0.0322 H         1 <0>         0.4302
     24 H5          1.0345   -4.6507   -0.9228 H         1 <0>         0.1342
     25 H6          1.0515   -4.6603    0.8570 H         1 <0>         0.1343
     26 H7         -4.5308   -9.4956   -0.0262 H         1 <0>         0.2360
     27 H8          1.9201   -8.8722   -0.0549 H         1 <0>         0.2095
@<TRIPOS>BOND
     1    1    5 1
     2    1    2 2
     3    1   21 1
     4    2    3 1
     5    2   22 1
     6    3    4 1
     7    4    5 2
     8    4    6 1
     9    6    7 am
    10    6   23 1
    11    7    8 2
    12    7    9 1
    13    9   10 1
    14    9   24 1
    15    9   25 1
    16   10   11 1
    17   11   20 ar
    18   11   12 ar
    19   12   13 ar
    20   12   17 1
    21   13   14 1
    22   13   18 ar
    23   14   16 2
    24   15   17 1
    25   16   26 1
    26   16   17 1
    27   18   19 ar
    28   19   27 1
    29   19   20 ar
@<TRIPOS>MOLECULE
ZINC67267226
   49    51     0     0     0
SMALL
USER_CHARGES

@<TRIPOS>ATOM
      1 C1          5.9632   -0.1057    1.8234 C.3       1 <0>        -0.1490
      2 C2          5.0710    0.4924    2.9129 C.3       1 <0>         0.0763
      3 C3          4.8307    1.9745    2.6188 C.3       1 <0>        -0.1480
      4 N1          3.7848   -0.2169    2.9366 N.3       1 <0>        -0.5329
      5 C4          3.9833   -1.6614    3.1153 C.3       1 <0>         0.0340
      6 C5          2.6407   -2.3821    2.9537 C.3       1 <0>         0.1099
      7 N2          1.6683   -1.7697    3.8716 N.am      1 <0>        -0.6156
      8 C6          1.5130   -0.3073    3.8466 C.3       1 <0>         0.1160
      9 C7          2.9001    0.3316    3.9731 C.3       1 <0>         0.0375
     10 C8          0.9385   -2.5285    4.7131 C.2       1 <0>         0.5211
     11 O1          0.2022   -2.0022    5.5204 O.2       1 <0>        -0.5307
     12 C9          1.0373   -4.0310    4.6508 C.3       1 <0>        -0.1037
     13 C10         0.1325   -4.5557    3.5339 C.3       1 <0>        -0.1165
     14 C11         0.2432   -6.0808    3.4635 C.3       1 <0>        -0.1092
     15 C12        -0.1694   -6.6856    4.8009 C.3       1 <0>         0.1209
     16 C13         0.7076   -6.1525    5.9284 C.3       1 <0>        -0.1115
     17 C14         0.5950   -4.6271    5.9888 C.3       1 <0>        -0.1106
     18 C15        -1.6259   -6.3978    5.0837 C.2       1 <0>         0.5302
     19 O2         -2.1474   -5.3111    5.2135 O.2       1 <0>        -0.4464
     20 N3         -2.2234   -7.6049    5.1611 N.am      1 <0>        -0.6818
     21 C16        -1.3500   -8.6007    4.9676 C.2       1 <0>         0.7044
     22 O3         -1.6512   -9.7780    4.9901 O.2       1 <0>        -0.5400
     23 N4         -0.1000   -8.1516    4.7452 N.am      1 <0>        -0.7186
     24 H1          5.4733   -0.0021    0.8552 H         1 <0>         0.0660
     25 H2          6.9176    0.4206    1.8058 H         1 <0>         0.0617
     26 H3          6.1344   -1.1616    2.0329 H         1 <0>         0.0564
     27 H4          5.5608    0.3888    3.8811 H         1 <0>         0.0399
     28 H5          4.3409    2.0780    1.6506 H         1 <0>         0.0658
     29 H6          4.1951    2.4006    3.3950 H         1 <0>         0.0563
     30 H7          5.7851    2.5008    2.6013 H         1 <0>         0.0613
     31 H8          4.6852   -2.0275    2.3660 H         1 <0>         0.0944
     32 H9          4.3815   -1.8533    4.1117 H         1 <0>         0.0380
     33 H10         2.2906   -2.2780    1.9267 H         1 <0>         0.0792
     34 H11         2.7600   -3.4377    3.1976 H         1 <0>         0.0906
     35 H12         1.0545   -0.0038    2.9055 H         1 <0>         0.0757
     36 H13         0.8868    0.0087    4.6809 H         1 <0>         0.0963
     37 H14         3.3133    0.1120    4.9575 H         1 <0>         0.0379
     38 H15         2.8163    1.4109    3.8459 H         1 <0>         0.0926
     39 H16         2.0688   -4.3191    4.4480 H         1 <0>         0.0946
     40 H17        -0.9003   -4.2753    3.7409 H         1 <0>         0.0901
     41 H18         0.4426   -4.1244    2.5821 H         1 <0>         0.0796
     42 H19        -0.4122   -6.4564    2.6777 H         1 <0>         0.0811
     43 H20         1.2730   -6.3601    3.2411 H         1 <0>         0.0902
     44 H21         0.3788   -6.5785    6.8764 H         1 <0>         0.0802
     45 H22         1.7448   -6.4330    5.7451 H         1 <0>         0.0883
     46 H23         1.2344   -4.2467    6.7853 H         1 <0>         0.0773
     47 H24        -0.4394   -4.3465    6.1875 H         1 <0>         0.0952
     48 H25        -3.1686   -7.7351    5.3359 H         1 <0>         0.4337
     49 H26         0.6900   -8.6899    4.5804 H         1 <0>         0.4417
@<TRIPOS>BOND
     1    1    2 1
     2    1   24 1
     3    1   25 1
     4    1   26 1
     5    2    3 1
     6    2    4 1
     7    2   27 1
     8    3   28 1
     9    3   29 1
    10    3   30 1
    11    4    9 1
    12    4    5 1
    13    5    6 1
    14    5   31 1
    15    5   32 1
    16    6    7 1
    17    6   33 1
    18    6   34 1
    19    7    8 1
    20    7   10 am
    21    8    9 1
    22    8   35 1
    23    8   36 1
    24    9   37 1
    25    9   38 1
    26   10   11 2
    27   10   12 1
    28   12   17 1
    29   12   13 1
    30   12   39 1
    31   13   14 1
    32   13   40 1
    33   13   41 1
    34   14   15 1
    35   14   42 1
    36   14   43 1
    37   15   23 1
    38   15   16 1
    39   15   18 1
    40   16   17 1
    41   16   44 1
    42   16   45 1
    43   17   46 1
    44   17   47 1
    45   18   19 2
    46   18   20 am
    47   20   21 am
    48   20   48 1
    49   21   22 2
    50   21   23 am
    51   23   49 1
@<TRIPOS>MOLECULE
ZINC05621104
   35    36     0     0     0
SMALL
USER_CHARGES
4-chloro-N-[1-(4-hydroxyphenyl)ethylideneamino]-3-nitro-benzamide
@<TRIPOS>ATOM
      1 C1          0.0021   -0.0041    0.0020 C.3       1 <0>        -0.1611
      2 C2         -0.0184    1.5028    0.0103 C.2       1 <0>         0.1479
      3 N1         -1.1512    2.1365    0.0191 N.2       1 <0>        -0.2298
      4 N2         -2.3549    1.4196    0.0209 N.am      1 <0>        -0.5772
      5 C3         -3.5311    2.0775    0.0301 C.2       1 <0>         0.5800
      6 O1         -3.5476    3.2934    0.0368 O.2       1 <0>        -0.4804
      7 C4         -4.8004    1.3215    0.0320 C.ar      1 <0>        -0.1266
      8 C5         -4.7847   -0.0749    0.0185 C.ar      1 <0>        -0.0280
      9 C6         -5.9725   -0.7749    0.0252 C.ar      1 <0>        -0.1129
     10 C7         -7.1799   -0.0957    0.0346 C.ar      1 <0>         0.0369
     11 C8         -7.2020    1.2890    0.0427 C.ar      1 <0>        -0.0454
     12 C9         -6.0205    2.0003    0.0415 C.ar      1 <0>         0.0186
     13 N3         -8.4963    2.0070    0.0533 N.pl3     1 <0>         0.0234
     14 O2         -8.5171    3.2248    0.0608 O.2       1 <0>        -0.1474
     15 O3         -9.5406    1.3801    0.0544 O.3       1 <0>        -0.1274
     16 Cl1        -8.6714   -0.9841    0.0368 Cl        1 <0>         0.0122
     17 C10         1.2481    2.2571    0.0023 C.ar      1 <0>        -0.0645
     18 C11         2.4689    1.5771   -0.0072 C.ar      1 <0>        -0.0732
     19 C12         3.6502    2.2865   -0.0205 C.ar      1 <0>        -0.1498
     20 C13         3.6289    3.6753   -0.0124 C.ar      1 <0>         0.1268
     21 C14         2.4180    4.3554    0.0028 C.ar      1 <0>        -0.1497
     22 C15         1.2316    3.6545    0.0099 C.ar      1 <0>        -0.0584
     23 O4          4.7960    4.3704   -0.0197 O.3       1 <0>        -0.4988
     24 H1          0.0168   -0.3729    1.0276 H         1 <0>         0.0925
     25 H2         -0.8878   -0.3767   -0.5053 H         1 <0>         0.0690
     26 H3          0.8920   -0.3525   -0.5222 H         1 <0>         0.0946
     27 H4         -2.3418    0.4497    0.0156 H         1 <0>         0.3854
     28 H5         -3.8440   -0.6054    0.0069 H         1 <0>         0.1527
     29 H6         -5.9616   -1.8548    0.0185 H         1 <0>         0.1684
     30 H7         -6.0389    3.0801    0.0474 H         1 <0>         0.1788
     31 H8          2.4864    0.4972   -0.0087 H         1 <0>         0.1355
     32 H9          4.5941    1.7618   -0.0330 H         1 <0>         0.1358
     33 H10         2.4062    5.4354    0.0088 H         1 <0>         0.1354
     34 H11         0.2905    4.1842    0.0210 H         1 <0>         0.1410
     35 H12         5.1423    4.5670    0.8615 H         1 <0>         0.3957
@<TRIPOS>BOND
     1    1    2 1
     2    1   24 1
     3    1   25 1
     4    1   26 1
     5    2    3 2
     6    2   17 1
     7    3    4 1
     8    4    5 am
     9    4   27 1
    10    5    6 2
    11    5    7 1
    12    7   12 ar
    13    7    8 ar
    14    8    9 ar
    15    8   28 1
    16    9   10 ar
    17    9   29 1
    18   10   11 ar
    19   10   16 1
    20   11   12 ar
    21   11   13 1
    22   12   30 1
    23   13   14 2
    24   13   15 1
    25   17   22 ar
    26   17   18 ar
    27   18   19 ar
    28   18   31 1
    29   19   20 ar
    30   19   32 1
    31   20   21 ar
    32   20   23 1
    33   21   22 ar
    34   21   33 1
    35   22   34 1
    36   23   35 1
@<TRIPOS>MOLECULE
ZINC09060183
   42    45     0     0     0
SMALL
USER_CHARGES
(3S)-N-(4-chlorophenyl)-1-(9H-purin-6-yl)piperidine-3-carboxamide
@<TRIPOS>ATOM
      1 C1          1.6711    8.9173    4.6510 C.ar      1 <0>        -0.1326
      2 C2          2.0722    9.4015    5.8807 C.ar      1 <0>        -0.0908
      3 C3          3.1225    8.8014    6.5528 C.ar      1 <0>        -0.0498
      4 C4          3.7695    7.7112    5.9979 C.ar      1 <0>        -0.0912
      5 C5          3.3683    7.2194    4.7713 C.ar      1 <0>        -0.1092
      6 C6          2.3150    7.8200    4.0946 C.ar      1 <0>         0.1491
      7 N1          1.9067    7.3238    2.8511 N.am      1 <0>        -0.6721
      8 C7          1.9542    5.9994    2.6054 C.2       1 <0>         0.5237
      9 O1          2.4283    5.2464    3.4296 O.2       1 <0>        -0.5140
     10 C8          1.4182    5.4543    1.3068 C.3       1 <0>        -0.0999
     11 H1          0.3597    5.6992    1.2185 H         1 <0>         0.1155
     12 C9          2.1858    6.0748    0.1362 C.3       1 <0>        -0.1144
     13 C10         1.6762    5.4711   -1.1754 C.3       1 <0>        -0.1117
     14 C11         1.8464    3.9509   -1.1317 C.3       1 <0>         0.0564
     15 N2          1.0929    3.4052    0.0045 N.pl3     1 <0>        -0.4928
     16 C12         1.5958    3.9345    1.2785 C.3       1 <0>         0.0878
     17 C13         1.1182    2.0216   -0.0023 C.ar      1 <0>         0.4297
     18 C14         2.3387    1.3247   -0.0088 C.ar      1 <0>        -0.0784
     19 C15         2.3006   -0.0797   -0.0160 C.ar      1 <0>         0.2803
     20 N3          3.6086   -0.4936   -0.0212 N.pl3     1 <0>        -0.5850
     21 H2          3.9295   -1.4407   -0.0268 H         1 <0>         0.4406
     22 C16         4.3905    0.6231   -0.0173 C.2       1 <0>         0.2806
     23 N4          3.6436    1.6887   -0.0100 N.2       1 <0>        -0.4705
     24 N5          1.1218   -0.6939   -0.0164 N.ar      1 <0>        -0.5202
     25 C17         0.0036    0.0003   -0.0101 C.ar      1 <0>         0.3287
     26 N6         -0.0110    1.3209   -0.0033 N.ar      1 <0>        -0.5045
     27 Cl1         3.6288    9.4169    8.0951 Cl        1 <0>        -0.0692
     28 H3          0.8543    9.3888    4.1247 H         1 <0>         0.1363
     29 H4          1.5686   10.2519    6.3160 H         1 <0>         0.1383
     30 H5          4.5887    7.2445    6.5247 H         1 <0>         0.1369
     31 H6          3.8732    6.3681    4.3390 H         1 <0>         0.1479
     32 H7          1.5896    7.9330    2.1661 H         1 <0>         0.4140
     33 H8          3.2496    5.8636    0.2454 H         1 <0>         0.0729
     34 H9          2.0267    7.1531    0.1270 H         1 <0>         0.0740
     35 H10         2.2482    5.8775   -2.0095 H         1 <0>         0.0804
     36 H11         0.6217    5.7157   -1.3031 H         1 <0>         0.0785
     37 H12         2.9026    3.7068   -1.0179 H         1 <0>         0.0669
     38 H13         1.4711    3.5168   -2.0584 H         1 <0>         0.0758
     39 H14         1.0388    3.4884    2.1024 H         1 <0>         0.0829
     40 H15         2.6532    3.6905    1.3811 H         1 <0>         0.0663
     41 H16         5.4705    0.6233   -0.0198 H         1 <0>         0.2310
     42 H17        -0.9373   -0.5299   -0.0110 H         1 <0>         0.2121
@<TRIPOS>BOND
     1    1    6 ar
     2    1    2 ar
     3    1   28 1
     4    2    3 ar
     5    2   29 1
     6    3    4 ar
     7    3   27 1
     8    4    5 ar
     9    4   30 1
    10    5    6 ar
    11    5   31 1
    12    6    7 1
    13    7    8 am
    14    7   32 1
    15    8    9 2
    16    8   10 1
    17   10   11 1
    18   10   16 1
    19   10   12 1
    20   12   13 1
    21   12   33 1
    22   12   34 1
    23   13   14 1
    24   13   35 1
    25   13   36 1
    26   14   15 1
    27   14   37 1
    28   14   38 1
    29   15   16 1
    30   15   17 1
    31   16   39 1
    32   16   40 1
    33   17   26 ar
    34   17   18 ar
    35   18   23 1
    36   18   19 ar
    37   19   20 1
    38   19   24 ar
    39   20   21 1
    40   20   22 1
    41   22   23 2
    42   22   41 1
    43   24   25 ar
    44   25   26 ar
    45   25   42 1
@<TRIPOS>MOLECULE
ZINC38742023
   42    45     0     0     0
SMALL
USER_CHARGES

@<TRIPOS>ATOM
      1 C1         -0.0184    1.5028    0.0103 C.3       1 <0>        -0.0915
      2 C2          0.0021   -0.0041    0.0020 C.2       1 <0>        -0.0235
      3 C3         -1.0863   -0.7768    0.0030 C.2       1 <0>        -0.1632
      4 C4         -0.5311   -2.1901   -0.0073 C.3       1 <0>        -0.0734
      5 H1         -0.8454   -2.7212   -0.9058 H         1 <0>         0.1470
      6 N1          0.9257   -1.9734   -0.0130 N.2       1 <0>        -0.1227
      7 N2          1.1248   -0.7562   -0.0132 N.2       1 <0>        -0.1603
      8 C5         -0.9640   -2.9506    1.2477 C.3       1 <0>         0.3733
      9 H2         -0.6094   -2.4360    2.1407 H         1 <0>         0.1279
     10 N3         -2.4401   -3.0819    1.2839 N.3       1 <0>        -0.4754
     11 N4         -2.7308   -4.5227    1.3778 N.3       1 <0>        -0.4523
     12 C6         -1.4991   -5.0705    1.9812 C.3       1 <0>         0.2539
     13 H3         -1.4432   -4.9411    3.0620 H         1 <0>         0.1609
     14 N5         -0.4410   -4.3353    1.2131 N.pl3     1 <0>        -0.5556
     15 N6          0.5414   -5.1549    0.7010 N.2       1 <0>        -0.1768
     16 C7          0.4064   -6.4456    0.6045 C.2       1 <0>         0.1655
     17 S1         -1.1830   -6.7856    1.4225 S.3       1 <0>        -0.1841
     18 C8          1.3337   -7.4149   -0.0174 C.ar      1 <0>         0.0290
     19 C9          1.0182   -8.7748   -0.0338 C.ar      1 <0>        -0.1227
     20 C10         1.8857   -9.6765   -0.6149 C.ar      1 <0>        -0.0746
     21 C11         3.0684   -9.2379   -1.1816 C.ar      1 <0>        -0.1906
     22 C12         3.3908   -7.8877   -1.1696 C.ar      1 <0>         0.1332
     23 C13         2.5240   -6.9733   -0.5949 C.ar      1 <0>        -0.1085
     24 O1          4.5547   -7.4623   -1.7277 O.3       1 <0>        -0.3072
     25 C14         5.3981   -8.4591   -2.3083 C.3       1 <0>         0.0865
     26 C15         6.6330   -7.8054   -2.8730 C.2       1 <0>        -0.1609
     27 C16         7.8119   -8.3329   -2.6538 C.2       1 <0>        -0.1663
     28 H4          1.0042    1.8801    0.0026 H         1 <0>         0.0817
     29 H5         -0.5455    1.8639   -0.8728 H         1 <0>         0.0813
     30 H6         -0.5286    1.8543    0.9071 H         1 <0>         0.0830
     31 H7         -2.1213   -0.4684    0.0099 H         1 <0>         0.1799
     32 H8         -2.8591   -2.6816    0.4580 H         1 <0>         0.3514
     33 H9         -2.8931   -4.9191    0.4642 H         1 <0>         0.3342
     34 H10         0.0957   -9.1207    0.4086 H         1 <0>         0.1314
     35 H11         1.6406  -10.7283   -0.6269 H         1 <0>         0.1363
     36 H12         3.7439   -9.9484   -1.6347 H         1 <0>         0.1340
     37 H13         2.7712   -5.9219   -0.5896 H         1 <0>         0.1441
     38 H14         5.6863   -9.1812   -1.5444 H         1 <0>         0.0699
     39 H15         4.8601   -8.9701   -3.1068 H         1 <0>         0.0741
     40 H16         6.5460   -6.9020   -3.4585 H         1 <0>         0.1211
     41 H17         7.8988   -9.2363   -2.0683 H         1 <0>         0.1003
     42 H18         8.6968   -7.8645   -3.0585 H         1 <0>         0.1096
@<TRIPOS>BOND
     1    1    2 1
     2    1   28 1
     3    1   29 1
     4    1   30 1
     5    2    7 1
     6    2    3 2
     7    3    4 1
     8    3   31 1
     9    4    5 1
    10    4    6 1
    11    4    8 1
    12    6    7 2
    13    8    9 1
    14    8   14 1
    15    8   10 1
    16   10   11 1
    17   10   32 1
    18   11   12 1
    19   11   33 1
    20   12   13 1
    21   12   17 1
    22   12   14 1
    23   14   15 1
    24   15   16 2
    25   16   17 1
    26   16   18 1
    27   18   23 ar
    28   18   19 ar
    29   19   20 ar
    30   19   34 1
    31   20   21 ar
    32   20   35 1
    33   21   22 ar
    34   21   36 1
    35   22   23 ar
    36   22   24 1
    37   23   37 1
    38   24   25 1
    39   25   26 1
    40   25   38 1
    41   25   39 1
    42   26   27 2
    43   26   40 1
    44   27   41 1
    45   27   42 1
@<TRIPOS>MOLECULE
ZINC19943503
   46    49     0     0     0
SMALL
USER_CHARGES

@<TRIPOS>ATOM
      1 C1         -0.1718    1.4948   -0.0829 C.3       1 <0>        -0.1098
      2 C2         -0.1107   -0.0109   -0.0669 C.2       1 <0>         0.2241
      3 C3         -1.2709   -0.7327   -0.0675 C.2       1 <0>        -0.3517
      4 C4         -1.1935   -2.1372   -0.0529 C.2       1 <0>         0.5460
      5 O1         -2.2049   -2.8198   -0.0533 O.3       1 <0>        -0.5426
      6 N1          0.0453   -2.7182   -0.0387 N.pl3     1 <0>        -0.5746
      7 C5          1.1742   -1.9425   -0.0388 C.2       1 <0>         0.6305
      8 N2          1.0681   -0.6176   -0.0579 N.2       1 <0>        -0.5483
      9 N3          2.3872   -2.5076   -0.0240 N.2       1 <0>        -0.6139
     10 C6          2.5952   -3.8036   -0.0091 C.cat     1 <0>         0.6960
     11 N4          1.5686   -4.7050   -0.0073 N.pl3     1 <0>        -0.7368
     12 C7          0.1907   -4.1801   -0.0225 C.3       1 <0>         0.3706
     13 H1         -0.3129   -4.5791   -0.9031 H         1 <0>         0.1024
     14 C8         -0.5335   -4.7146    1.2147 C.3       1 <0>        -0.1260
     15 H2         -1.5792   -4.4082    1.1880 H         1 <0>         0.1194
     16 C9          0.1333   -4.1627    2.4811 C.3       1 <0>        -0.1075
     17 C10        -0.7144   -4.5661    3.6895 C.3       1 <0>        -0.0910
     18 C11        -1.0238   -6.0336    3.6371 C.2       1 <0>        -0.1465
     19 C12        -0.9091   -6.7615    2.5729 C.2       1 <0>        -0.1590
     20 C13        -0.4456   -6.2420    1.2424 C.3       1 <0>        -0.0791
     21 N5          3.8798   -4.2659    0.0047 N.pl3     1 <0>        -0.6910
     22 C14         4.9987   -3.3203    0.0026 C.3       1 <0>         0.2209
     23 C15         6.2994   -4.0811    0.0196 C.2       1 <0>        -0.0526
     24 C16         6.9887   -4.4849   -1.0626 C.2       1 <0>        -0.1726
     25 C17         8.1386   -5.1572   -0.5885 C.2       1 <0>        -0.2197
     26 C18         8.0832   -5.1240    0.7551 C.2       1 <0>        -0.0203
     27 O2          6.9700   -4.4659    1.1178 O.3       1 <0>        -0.1705
     28 H3          0.8403    1.8995   -0.0850 H         1 <0>         0.0816
     29 H4         -0.6980    1.8276   -0.9776 H         1 <0>         0.0846
     30 H5         -0.7019    1.8464    0.8022 H         1 <0>         0.0845
     31 H6         -2.2290   -0.2345   -0.0787 H         1 <0>         0.1523
     32 H7          1.1348   -4.5814    2.5799 H         1 <0>         0.0619
     33 H8          0.1915   -3.0760    2.4207 H         1 <0>         0.0586
     34 H9         -0.1663   -4.3449    4.6054 H         1 <0>         0.0742
     35 H10        -1.6458   -4.0000    3.6826 H         1 <0>         0.0771
     36 H11        -1.3630   -6.5123    4.5439 H         1 <0>         0.1062
     37 H12        -1.1662   -7.8079    2.6450 H         1 <0>         0.1077
     38 H13        -1.0720   -6.6544    0.4514 H         1 <0>         0.0801
     39 H14         0.5877   -6.5475    1.0783 H         1 <0>         0.0666
     40 H15         4.0516   -5.2205    0.0158 H         1 <0>         0.4168
     41 H16         4.9508   -2.7026   -0.8942 H         1 <0>         0.1131
     42 H17         4.9384   -2.6841    0.8856 H         1 <0>         0.0989
     43 H18         6.7159   -4.3266   -2.0955 H         1 <0>         0.1528
     44 H19         8.9127   -5.6108   -1.1897 H         1 <0>         0.1528
     45 H20         8.8122   -5.5507    1.4281 H         1 <0>         0.2070
     46 H21         1.7406   -5.6595    0.0032 H         1 <0>         0.4266
@<TRIPOS>BOND
     1    1    2 1
     2    1   28 1
     3    1   29 1
     4    1   30 1
     5    2    8 2
     6    2    3 1
     7    3    4 2
     8    3   31 1
     9    4    5 1
    10    4    6 1
    11    6   12 1
    12    6    7 1
    13    7    8 1
    14    7    9 2
    15    9   10 1
    16   10   11 2
    17   10   21 1
    18   11   12 1
    19   11   46 1
    20   12   13 1
    21   12   14 1
    22   14   15 1
    23   14   20 1
    24   14   16 1
    25   16   17 1
    26   16   32 1
    27   16   33 1
    28   17   18 1
    29   17   34 1
    30   17   35 1
    31   18   19 2
    32   18   36 1
    33   19   20 1
    34   19   37 1
    35   20   38 1
    36   20   39 1
    37   21   22 1
    38   21   40 1
    39   22   23 1
    40   22   41 1
    41   22   42 1
    42   23   27 1
    43   23   24 2
    44   24   25 1
    45   24   43 1
    46   25   26 2
    47   25   44 1
    48   26   27 1
    49   26   45 1
@<TRIPOS>MOLECULE
ZINC66467992
   32    34     0     0     0
SMALL
USER_CHARGES

@<TRIPOS>ATOM
      1 C1         -0.0163    1.3534    0.0095 C.2       1 <0>        -0.1656
      2 C2          1.1777    2.0410    0.0018 C.2       1 <0>        -0.1056
      3 C3          2.3469    1.3292   -0.0132 C.2       1 <0>        -0.1048
      4 S1          1.7525   -0.3543   -0.0166 S.3       1 <0>         0.1222
      5 C4          0.0021   -0.0041    0.0020 C.2       1 <0>        -0.1633
      6 C5          3.7397    1.8255   -0.0243 C.2       1 <0>         0.3151
      7 N1          4.8421    1.0618   -0.0443 N.2       1 <0>        -0.5045
      8 C6          5.9056    1.8211   -0.0498 C.2       1 <0>         0.2665
      9 N2          5.5084    3.1061   -0.0333 N.pl3     1 <0>        -0.4631
     10 H1          6.0799    3.8899   -0.0328 H         1 <0>         0.4478
     11 N3          4.1042    3.0908   -0.0219 N.2       1 <0>        -0.2767
     12 C7          7.3334    1.3394   -0.0702 C.3       1 <0>         0.1989
     13 N4          7.7730    1.0567    1.2983 N.pl3     1 <0>        -0.7212
     14 C8          9.0705    0.5940    1.5339 C.ar      1 <0>         0.2778
     15 C9          9.9463    0.4072    0.4724 C.ar      1 <0>        -0.1869
     16 C10        11.2282   -0.0498    0.7086 C.ar      1 <0>         0.0040
     17 C11        11.6404   -0.3218    2.0003 C.ar      1 <0>        -0.0976
     18 C12        10.7716   -0.1371    3.0601 C.ar      1 <0>         0.0056
     19 C13         9.4893    0.3253    2.8317 C.ar      1 <0>        -0.1156
     20 Cl1         8.4012    0.5638    4.1632 Cl        1 <0>        -0.0381
     21 N5         13.0145   -0.8121    2.2490 N.pl3     1 <0>         0.0426
     22 O1         13.7751   -0.9745    1.3233 O.2       1 <0>        -0.1614
     23 O2         13.3764   -1.0504    3.3777 O.3       1 <0>        -0.1637
     24 H2         -0.9549    1.8875    0.0258 H         1 <0>         0.1420
     25 H3          1.1909    3.1209    0.0071 H         1 <0>         0.1412
     26 H4         -0.8285   -0.6944    0.0068 H         1 <0>         0.1932
     27 H5          7.4018    0.4310   -0.6688 H         1 <0>         0.1147
     28 H6          7.9706    2.1096   -0.5048 H         1 <0>         0.1004
     29 H7          7.1636    1.1906    2.0410 H         1 <0>         0.4145
     30 H8          9.6253    0.6186   -0.5369 H         1 <0>         0.1563
     31 H9         11.9094   -0.1952   -0.1167 H         1 <0>         0.1614
     32 H10        11.0967   -0.3505    4.0677 H         1 <0>         0.1641
@<TRIPOS>BOND
     1    1    5 2
     2    1    2 1
     3    1   24 1
     4    2    3 2
     5    2   25 1
     6    3    4 1
     7    3    6 1
     8    4    5 1
     9    5   26 1
    10    6   11 2
    11    6    7 1
    12    7    8 2
    13    8    9 1
    14    8   12 1
    15    9   10 1
    16    9   11 1
    17   12   13 1
    18   12   27 1
    19   12   28 1
    20   13   14 1
    21   13   29 1
    22   14   19 ar
    23   14   15 ar
    24   15   16 ar
    25   15   30 1
    26   16   17 ar
    27   16   31 1
    28   17   18 ar
    29   17   21 1
    30   18   19 ar
    31   18   32 1
    32   19   20 1
    33   21   22 2
    34   21   23 1
@<TRIPOS>MOLECULE
ZINC13021168
   50    53     0     0     0
SMALL
USER_CHARGES
N'-[2-(4-isopropylphenyl)thiazole-4-carbonyl]-4-oxo-3H-phthalazine-1-carbohydrazide
@<TRIPOS>ATOM
      1 C1         -5.2530   -3.4782    1.2859 C.3       1 <0>        -0.1465
      2 C2         -4.4117   -3.6973    0.0269 C.3       1 <0>        -0.0618
      3 C3         -5.2783   -3.4648   -1.2124 C.3       1 <0>        -0.1465
      4 C4         -3.2560   -2.7303    0.0204 C.ar      1 <0>        -0.0511
      5 C5         -1.9579   -3.2084    0.0047 C.ar      1 <0>        -0.1159
      6 C6         -0.8954   -2.3282   -0.0013 C.ar      1 <0>        -0.0860
      7 C7         -1.1323   -0.9533    0.0085 C.ar      1 <0>        -0.0284
      8 C8         -2.4438   -0.4775    0.0301 C.ar      1 <0>        -0.0636
      9 C9         -3.4976   -1.3681    0.0306 C.ar      1 <0>        -0.1154
     10 C10         0.0021   -0.0041    0.0020 C.2       1 <0>         0.1474
     11 N1         -0.0158    1.3161    0.0093 N.2       1 <0>        -0.4772
     12 C11         1.1228    1.9926    0.0020 C.2       1 <0>         0.0037
     13 C12         2.3099    1.3028   -0.0130 C.2       1 <0>        -0.1542
     14 S1          1.7553   -0.3429   -0.0165 S.3       1 <0>         0.1190
     15 C13         1.1158    3.4657    0.0095 C.2       1 <0>         0.5965
     16 O1          2.1661    4.0789    0.0023 O.2       1 <0>        -0.5281
     17 N2         -0.0546    4.1339    0.0244 N.am      1 <0>        -0.5026
     18 N3         -0.0613    5.5348    0.0315 N.am      1 <0>        -0.5011
     19 C14        -1.2317    6.2030    0.0463 C.2       1 <0>         0.5991
     20 O2         -2.2816    5.5900    0.0535 O.2       1 <0>        -0.5168
     21 C15        -1.2388    7.6794    0.0538 C.2       1 <0>         0.0674
     22 C16        -2.5119    8.4178    0.0639 C.ar      1 <0>        -0.0336
     23 C17        -3.7499    7.7847    0.0785 C.ar      1 <0>        -0.0948
     24 C18        -4.8993    8.5461    0.0936 C.ar      1 <0>        -0.0840
     25 C19        -4.8332    9.9333    0.1004 C.ar      1 <0>        -0.1119
     26 C20        -3.6161   10.5809    0.0923 C.ar      1 <0>        -0.0520
     27 C21        -2.4447    9.8304    0.0770 C.ar      1 <0>        -0.1388
     28 C22        -1.1070   10.4386    0.0670 C.2       1 <0>         0.5169
     29 O3         -0.9728   11.6485    0.0718 O.2       1 <0>        -0.4933
     30 N4         -0.0313    9.6249    0.0518 N.am      1 <0>        -0.4572
     31 H1          0.8503   10.0296    0.0453 H         1 <0>         0.4450
     32 N5         -0.1113    8.3481    0.0461 N.2       1 <0>        -0.1891
     33 H2         -5.6338   -2.4569    1.2953 H         1 <0>         0.0586
     34 H3         -6.0890   -4.1777    1.2906 H         1 <0>         0.0609
     35 H4         -4.6357   -3.6439    2.1688 H         1 <0>         0.0573
     36 H5         -4.0310   -4.7186    0.0176 H         1 <0>         0.0811
     37 H6         -4.6790   -3.6209   -2.1093 H         1 <0>         0.0573
     38 H7         -6.1142   -4.1643   -1.2077 H         1 <0>         0.0609
     39 H8         -5.6591   -2.4435   -1.2031 H         1 <0>         0.0586
     40 H9         -1.7758   -4.2729   -0.0025 H         1 <0>         0.1318
     41 H10         0.1175   -2.7027   -0.0132 H         1 <0>         0.1277
     42 H11        -2.6336    0.5856    0.0426 H         1 <0>         0.1368
     43 H12        -4.5133   -1.0011    0.0436 H         1 <0>         0.1316
     44 H13         3.3208    1.6830   -0.0203 H         1 <0>         0.2141
     45 H14        -0.8923    3.6448    0.0301 H         1 <0>         0.4437
     46 H15         0.7763    6.0239    0.0257 H         1 <0>         0.4416
     47 H16        -3.8106    6.7064    0.0732 H         1 <0>         0.1714
     48 H17        -5.8626    8.0579    0.0998 H         1 <0>         0.1384
     49 H18        -5.7455   10.5112    0.1119 H         1 <0>         0.1385
     50 H19        -3.5725   11.6600    0.0980 H         1 <0>         0.1445
@<TRIPOS>BOND
     1    1    2 1
     2    1   33 1
     3    1   34 1
     4    1   35 1
     5    2    3 1
     6    2    4 1
     7    2   36 1
     8    3   37 1
     9    3   38 1
    10    3   39 1
    11    4    9 ar
    12    4    5 ar
    13    5    6 ar
    14    5   40 1
    15    6    7 ar
    16    6   41 1
    17    7    8 ar
    18    7   10 1
    19    8    9 ar
    20    8   42 1
    21    9   43 1
    22   10   14 1
    23   10   11 2
    24   11   12 1
    25   12   13 2
    26   12   15 1
    27   13   14 1
    28   13   44 1
    29   15   16 2
    30   15   17 am
    31   17   18 1
    32   17   45 1
    33   18   19 am
    34   18   46 1
    35   19   20 2
    36   19   21 1
    37   21   32 2
    38   21   22 1
    39   22   27 ar
    40   22   23 ar
    41   23   24 ar
    42   23   47 1
    43   24   25 ar
    44   24   48 1
    45   25   26 ar
    46   25   49 1
    47   26   27 ar
    48   26   50 1
    49   27   28 1
    50   28   29 2
    51   28   30 am
    52   30   31 1
    53   30   32 1
@<TRIPOS>MOLECULE
ZINC08881596
   61    63     0     0     0
SMALL
USER_CHARGES

@<TRIPOS>ATOM
      1 C1         -0.2498   -3.1913   -2.2450 C.3       1 <0>        -0.1180
      2 C2         -0.1071   -2.2499   -1.0769 C.ar      1 <0>        -0.1130
      3 C3          0.0170   -0.8907   -1.2958 C.ar      1 <0>        -0.0559
      4 C4          0.1479   -0.0272   -0.2243 C.ar      1 <0>        -0.1130
      5 C5          0.1541   -0.5228    1.0661 C.ar      1 <0>         0.0170
      6 C6          0.0290   -1.8820    1.2851 C.ar      1 <0>        -0.6787
      7 C7         -0.1062   -2.7451    0.2138 C.ar      1 <0>         0.0208
      8 C8         -0.2478   -4.2263    0.4527 C.3       1 <0>        -0.1767
      9 S1          0.0375   -2.5138    2.9298 S.o2      1 <0>         2.6888
     10 O1         -0.4103   -1.4605    3.7719 O.2       1 <0>        -0.9518
     11 O2         -0.6088   -3.7784    2.8825 O.2       1 <0>        -0.9497
     12 N1          1.6168   -2.8044    3.3346 N.pl3     1 <0>        -0.9983
     13 C9          2.2317   -4.1103    3.0605 C.3       1 <0>         0.1157
     14 C10         2.8399   -4.6511    4.3583 C.3       1 <0>        -0.1114
     15 C11         3.8028   -3.6120    4.9374 C.3       1 <0>        -0.0934
     16 C12         3.0358   -2.3280    5.2617 C.3       1 <0>        -0.1278
     17 C13         2.4315   -1.7591    3.9690 C.3       1 <0>         0.1153
     18 C14         4.4289   -4.1544    6.1964 C.2       1 <0>         0.5192
     19 O3          4.1341   -5.2625    6.5915 O.2       1 <0>        -0.5332
     20 N2          5.3164   -3.4081    6.8832 N.am      1 <0>        -0.5206
     21 N3          5.8984   -3.9123    8.0536 N.am      1 <0>        -0.5238
     22 C15         6.7860   -3.1659    8.7404 C.2       1 <0>         0.5627
     23 O4          7.0815   -2.0550    8.3443 O.2       1 <0>        -0.5196
     24 C16         7.3989   -3.6969    9.9729 C.ar      1 <0>        -0.1649
     25 C17         7.0665   -4.9751   10.4286 C.ar      1 <0>        -0.0699
     26 C18         7.6424   -5.4652   11.5804 C.ar      1 <0>        -0.1349
     27 C19         8.5505   -4.6960   12.2899 C.ar      1 <0>        -0.0697
     28 C20         8.8875   -3.4312   11.8511 C.ar      1 <0>        -0.1550
     29 C21         8.3221   -2.9243   10.6902 C.ar      1 <0>         0.1759
     30 O5          8.6573   -1.6842   10.2543 O.3       1 <0>        -0.4776
     31 C22         0.2977    0.4185    2.2342 C.3       1 <0>        -0.1447
     32 C23         0.2843    1.4546   -0.4630 C.3       1 <0>        -0.1185
     33 H1         -1.3057   -3.3141   -2.4859 H         1 <0>         0.0732
     34 H2          0.2745   -2.7813   -3.1082 H         1 <0>         0.0683
     35 H3          0.1787   -4.1595   -1.9858 H         1 <0>         0.0738
     36 H4          0.0122   -0.5034   -2.3040 H         1 <0>         0.1295
     37 H5          0.7179   -4.6418    0.7406 H         1 <0>         0.0774
     38 H6         -0.9699   -4.3982    1.2508 H         1 <0>         0.1293
     39 H7         -0.5937   -4.7102   -0.4607 H         1 <0>         0.0784
     40 H8          1.4725   -4.8025    2.6965 H         1 <0>         0.1018
     41 H9          3.0142   -3.9955    2.3103 H         1 <0>         0.0747
     42 H10         2.0451   -4.8508    5.0770 H         1 <0>         0.0817
     43 H11         3.3823   -5.5731    4.1494 H         1 <0>         0.0894
     44 H12         4.5835   -3.3944    4.2085 H         1 <0>         0.1094
     45 H13         2.2391   -2.5497    5.9718 H         1 <0>         0.0818
     46 H14         3.7176   -1.5967    5.6957 H         1 <0>         0.0845
     47 H15         3.2299   -1.4565    3.2914 H         1 <0>         0.0781
     48 H16         1.8040   -0.8995    4.2047 H         1 <0>         0.1027
     49 H17         5.5522   -2.5218    6.5672 H         1 <0>         0.4326
     50 H18         5.6627   -4.7985    8.3696 H         1 <0>         0.4306
     51 H19         6.3589   -5.5781    9.8789 H         1 <0>         0.1306
     52 H20         7.3845   -6.4533   11.9320 H         1 <0>         0.1357
     53 H21         8.9970   -5.0881   13.1917 H         1 <0>         0.1356
     54 H22         9.5956   -2.8373   12.4100 H         1 <0>         0.1398
     55 H23         8.0954   -0.9792   10.6041 H         1 <0>         0.3980
     56 H24        -0.6883    0.6522    2.6359 H         1 <0>         0.0963
     57 H25         0.9031   -0.0529    3.0084 H         1 <0>         0.0765
     58 H26         0.7822    1.3370    1.9031 H         1 <0>         0.0790
     59 H27        -0.7046    1.9128   -0.4772 H         1 <0>         0.0736
     60 H28         0.8788    1.8980    0.3357 H         1 <0>         0.0743
     61 H29         0.7773    1.6245   -1.4202 H         1 <0>         0.0681
@<TRIPOS>BOND
     1    1    2 1
     2    1   33 1
     3    1   34 1
     4    1   35 1
     5    2    7 ar
     6    2    3 ar
     7    3    4 ar
     8    3   36 1
     9    4    5 ar
    10    4   32 1
    11    5    6 ar
    12    5   31 1
    13    6    7 ar
    14    6    9 1
    15    7    8 1
    16    8   37 1
    17    8   38 1
    18    8   39 1
    19    9   10 2
    20    9   11 2
    21    9   12 1
    22   12   17 1
    23   12   13 1
    24   13   14 1
    25   13   40 1
    26   13   41 1
    27   14   15 1
    28   14   42 1
    29   14   43 1
    30   15   16 1
    31   15   18 1
    32   15   44 1
    33   16   17 1
    34   16   45 1
    35   16   46 1
    36   17   47 1
    37   17   48 1
    38   18   19 2
    39   18   20 am
    40   20   21 1
    41   20   49 1
    42   21   22 am
    43   21   50 1
    44   22   23 2
    45   22   24 1
    46   24   29 ar
    47   24   25 ar
    48   25   26 ar
    49   25   51 1
    50   26   27 ar
    51   26   52 1
    52   27   28 ar
    53   27   53 1
    54   28   29 ar
    55   28   54 1
    56   29   30 1
    57   30   55 1
    58   31   56 1
    59   31   57 1
    60   31   58 1
    61   32   59 1
    62   32   60 1
    63   32   61 1
@<TRIPOS>MOLECULE
ZINC40390409
   57    60     0     0     0
SMALL
USER_CHARGES

@<TRIPOS>ATOM
      1 C1         -0.4604    1.1413    0.4426 C.3       1 <0>        -0.1131
      2 C2         -0.3672   -0.3610    0.3676 C.ar      1 <0>        -0.0972
      3 C3          0.2478   -0.9609   -0.7162 C.ar      1 <0>        -0.1087
      4 C4          0.3349   -2.3372   -0.7879 C.ar      1 <0>        -0.1125
      5 C5         -0.1955   -3.1191    0.2301 C.ar      1 <0>         0.1390
      6 C6         -0.8119   -2.5137    1.3171 C.ar      1 <0>        -0.1071
      7 C7         -0.8915   -1.1363    1.3852 C.ar      1 <0>        -0.1041
      8 C8         -1.3888   -3.3582    2.4239 C.3       1 <0>        -0.1160
      9 N1         -0.1094   -4.5139    0.1603 N.am      1 <0>        -0.6710
     10 C9         -0.1818   -5.1346   -1.0338 C.2       1 <0>         0.5147
     11 O1         -0.2383   -4.4816   -2.0543 O.2       1 <0>        -0.5042
     12 C10        -0.1926   -6.6401   -1.1011 C.3       1 <0>        -0.0205
     13 H1         -1.0540   -7.0219   -0.5530 H         1 <0>         0.1296
     14 C11         1.0923   -7.1874   -0.4766 C.3       1 <0>        -0.1357
     15 C12         2.2556   -6.9182   -1.3947 C.2       1 <0>         0.5311
     16 O2          3.3345   -6.6245   -0.9257 O.2       1 <0>        -0.5007
     17 N2          2.1104   -7.0006   -2.7284 N.am      1 <0>        -0.6383
     18 C13         0.8689   -7.2299   -3.2957 C.2       1 <0>         0.4757
     19 C14        -0.2791   -7.0771   -2.5386 C.2       1 <0>        -0.3545
     20 C15        -1.5210   -7.3346   -3.1273 C.2       1 <0>         0.5721
     21 O3         -2.5515   -7.2204   -2.4829 O.2       1 <0>        -0.5373
     22 N3         -1.5574   -7.7119   -4.4235 N.am      1 <0>        -0.6579
     23 H2         -2.4072   -7.9103   -4.8470 H         1 <0>         0.4126
     24 C16        -0.4023   -7.8134   -5.1358 C.2       1 <0>         0.6704
     25 N4          0.7681   -7.5749   -4.5842 N.2       1 <0>        -0.5941
     26 N5         -0.4595   -8.1720   -6.4561 N.pl3     1 <0>        -0.5787
     27 C17        -1.7530   -8.3063   -7.1400 C.3       1 <0>         0.1076
     28 C18        -1.8259   -9.6918   -7.7894 C.3       1 <0>        -0.1364
     29 C19        -0.6107   -9.8892   -8.6986 C.3       1 <0>        -0.1238
     30 C20         0.6702   -9.8135   -7.8645 C.3       1 <0>        -0.1338
     31 C21         0.7716   -8.4239   -7.2175 C.3       1 <0>         0.1554
     32 H3          0.8844   -7.6648   -7.9914 H         1 <0>         0.0831
     33 C22         1.9756   -8.3818   -6.2743 C.3       1 <0>        -0.1389
     34 H4          0.4202    1.5351    0.9501 H         1 <0>         0.0697
     35 H5         -0.5133    1.5528   -0.5654 H         1 <0>         0.0654
     36 H6         -1.3556    1.4225    0.9973 H         1 <0>         0.0654
     37 H7          0.6600   -0.3524   -1.5075 H         1 <0>         0.1233
     38 H8          0.8146   -2.8051   -1.6349 H         1 <0>         0.1372
     39 H9         -1.3672   -0.6647    2.2324 H         1 <0>         0.1252
     40 H10        -0.6270   -3.5305    3.1842 H         1 <0>         0.0718
     41 H11        -2.2377   -2.8409    2.8709 H         1 <0>         0.0716
     42 H12        -1.7190   -4.3141    2.0172 H         1 <0>         0.0645
     43 H13         0.0025   -5.0342    0.9713 H         1 <0>         0.4092
     44 H14         1.2662   -6.6992    0.4823 H         1 <0>         0.1150
     45 H15         0.9921   -8.2619   -0.3233 H         1 <0>         0.1244
     46 H16         2.8863   -6.8976   -3.3012 H         1 <0>         0.4190
     47 H17        -2.5615   -8.1986   -6.4170 H         1 <0>         0.0796
     48 H18        -1.8419   -7.5377   -7.9078 H         1 <0>         0.0890
     49 H19        -1.8281  -10.4575   -7.0137 H         1 <0>         0.0715
     50 H20        -2.7386   -9.7691   -8.3802 H         1 <0>         0.0855
     51 H21        -0.6728  -10.8647   -9.1810 H         1 <0>         0.0721
     52 H22        -0.5956   -9.1085   -9.4591 H         1 <0>         0.0687
     53 H23         0.6445  -10.5781   -7.0881 H         1 <0>         0.0703
     54 H24         1.5340   -9.9775   -8.5088 H         1 <0>         0.0828
     55 H25         1.7960   -9.0423   -5.4261 H         1 <0>         0.0710
     56 H26         2.8671   -8.7105   -6.8083 H         1 <0>         0.0521
     57 H27         2.1214   -7.3625   -5.9166 H         1 <0>         0.0890
@<TRIPOS>BOND
     1    1    2 1
     2    1   34 1
     3    1   35 1
     4    1   36 1
     5    2    7 ar
     6    2    3 ar
     7    3    4 ar
     8    3   37 1
     9    4    5 ar
    10    4   38 1
    11    5    6 ar
    12    5    9 1
    13    6    7 ar
    14    6    8 1
    15    7   39 1
    16    8   40 1
    17    8   41 1
    18    8   42 1
    19    9   10 am
    20    9   43 1
    21   10   11 2
    22   10   12 1
    23   12   13 1
    24   12   19 1
    25   12   14 1
    26   14   15 1
    27   14   44 1
    28   14   45 1
    29   15   16 2
    30   15   17 am
    31   17   18 1
    32   17   46 1
    33   18   25 1
    34   18   19 2
    35   19   20 1
    36   20   21 2
    37   20   22 am
    38   22   23 1
    39   22   24 1
    40   24   25 2
    41   24   26 1
    42   26   31 1
    43   26   27 1
    44   27   28 1
    45   27   47 1
    46   27   48 1
    47   28   29 1
    48   28   49 1
    49   28   50 1
    50   29   30 1
    51   29   51 1
    52   29   52 1
    53   30   31 1
    54   30   53 1
    55   30   54 1
    56   31   32 1
    57   31   33 1
    58   33   55 1
    59   33   56 1
    60   33   57 1
@<TRIPOS>MOLECULE
ZINC59984741
   50    53     0     0     0
SMALL
USER_CHARGES

@<TRIPOS>ATOM
      1 C1          4.9331    3.1091   -3.3515 C.ar      1 <0>        -0.0691
      2 C2          4.2940    2.7139   -2.1924 C.ar      1 <0>        -0.1438
      3 C3          4.9644    2.7688   -0.9770 C.ar      1 <0>         0.1782
      4 C4          6.2767    3.2213   -0.9305 C.ar      1 <0>        -0.2018
      5 C5          6.9116    3.6157   -2.0941 C.ar      1 <0>         0.1286
      6 C6          6.2392    3.5592   -3.3041 C.ar      1 <0>        -0.1643
      7 F1          8.1879    4.0565   -2.0508 F         1 <0>        -0.1317
      8 N1          4.3197    2.3701    0.1961 N.pl3     1 <0>        -1.0544
      9 S1          5.1384    1.4841    1.3306 S.o2      1 <0>         2.6914
     10 O1          6.3698    2.1555    1.5592 O.2       1 <0>        -0.9463
     11 O2          4.2151    1.2095    2.3753 O.2       1 <0>        -0.9473
     12 C7          5.5389   -0.0649    0.5924 C.ar      1 <0>        -0.7009
     13 C8          4.6108   -1.0900    0.5933 C.ar      1 <0>         0.0066
     14 C9          4.9217   -2.3055    0.0159 C.ar      1 <0>        -0.1720
     15 C10         6.1679   -2.4974   -0.5665 C.ar      1 <0>         0.2138
     16 C11         7.0976   -1.4655   -0.5661 C.ar      1 <0>        -0.1585
     17 C12         6.7785   -0.2508    0.0084 C.ar      1 <0>         0.0071
     18 N2          6.4861   -3.7271   -1.1516 N.am      1 <0>        -0.6604
     19 C13         7.4247   -3.7914   -2.1167 C.2       1 <0>         0.5844
     20 O3          7.9948   -2.7798   -2.4791 O.2       1 <0>        -0.5121
     21 C14         7.7598   -5.0854   -2.7321 C.2       1 <0>        -0.2859
     22 C15         8.8357   -5.2045   -3.6009 C.2       1 <0>         0.1067
     23 C16         9.1197   -6.4665   -4.1654 C.2       1 <0>        -0.2852
     24 C17         8.3436   -7.5704   -3.8546 C.2       1 <0>         0.2683
     25 N3          7.2947   -7.4545   -3.0151 N.am      1 <0>        -0.5926
     26 H1          6.7609   -8.2400   -2.8178 H         1 <0>         0.4262
     27 C18         6.9705   -6.2849   -2.4397 C.2       1 <0>         0.5427
     28 O4          6.0202   -6.2205   -1.6806 O.2       1 <0>        -0.5247
     29 C19         8.6448   -8.9297   -4.4315 C.3       1 <0>        -0.1093
     30 C20         9.4369   -8.8186   -5.7306 C.3       1 <0>        -0.1118
     31 C21        10.7020   -7.9863   -5.4818 C.3       1 <0>        -0.1669
     32 C22        10.2537   -6.5924   -5.0969 C.2       1 <0>         0.4130
     33 O5         10.8105   -5.6106   -5.5416 O.2       1 <0>        -0.4422
     34 H2          4.4130    3.0621   -4.2969 H         1 <0>         0.1391
     35 H3          3.2734    2.3628   -2.2311 H         1 <0>         0.1358
     36 H4          6.8004    3.2654    0.0130 H         1 <0>         0.1742
     37 H5          6.7365    3.8672   -4.2119 H         1 <0>         0.1393
     38 H6          3.3925    2.6122    0.3463 H         1 <0>         0.4303
     39 H7          3.6419   -0.9401    1.0463 H         1 <0>         0.1434
     40 H8          4.1967   -3.1060    0.0176 H         1 <0>         0.1379
     41 H9          8.0676   -1.6117   -1.0179 H         1 <0>         0.1622
     42 H10         7.4993    0.5534    0.0051 H         1 <0>         0.1442
     43 H11         6.0312   -4.5337   -0.8629 H         1 <0>         0.4272
     44 H12         9.4451   -4.3458   -3.8412 H         1 <0>         0.1647
     45 H13         9.2242   -9.5037   -3.7084 H         1 <0>         0.1174
     46 H14         7.7071   -9.4493   -4.6287 H         1 <0>         0.1054
     47 H15         9.7178   -9.8149   -6.0720 H         1 <0>         0.0985
     48 H16         8.8245   -8.3321   -6.4898 H         1 <0>         0.0802
     49 H17        11.2823   -8.4266   -4.6710 H         1 <0>         0.1089
     50 H18        11.3035   -7.9451   -6.3899 H         1 <0>         0.1056
@<TRIPOS>BOND
     1    1    6 ar
     2    1    2 ar
     3    1   34 1
     4    2    3 ar
     5    2   35 1
     6    3    4 ar
     7    3    8 1
     8    4    5 ar
     9    4   36 1
    10    5    6 ar
    11    5    7 1
    12    6   37 1
    13    8    9 1
    14    8   38 1
    15    9   10 2
    16    9   11 2
    17    9   12 1
    18   12   17 ar
    19   12   13 ar
    20   13   14 ar
    21   13   39 1
    22   14   15 ar
    23   14   40 1
    24   15   16 ar
    25   15   18 1
    26   16   17 ar
    27   16   41 1
    28   17   42 1
    29   18   19 am
    30   18   43 1
    31   19   20 2
    32   19   21 1
    33   21   27 1
    34   21   22 2
    35   22   23 1
    36   22   44 1
    37   23   32 1
    38   23   24 2
    39   24   25 1
    40   24   29 1
    41   25   26 1
    42   25   27 am
    43   27   28 2
    44   29   30 1
    45   29   45 1
    46   29   46 1
    47   30   31 1
    48   30   47 1
    49   30   48 1
    50   31   32 1
    51   31   49 1
    52   31   50 1
    53   32   33 2
@<TRIPOS>MOLECULE
ZINC36031996
   48    51     0     0     0
SMALL
USER_CHARGES

@<TRIPOS>ATOM
      1 C1         -0.0187    1.5258    0.0104 C.3       1 <0>        -0.1528
      2 C2          0.0021   -0.0041    0.0020 C.3       1 <0>         0.0488
      3 O1          0.6709   -0.4649   -1.1737 O.3       1 <0>        -0.2935
      4 C3          0.7768   -1.8110   -1.3363 C.ar      1 <0>         0.1152
      5 C4          0.2435   -2.6690   -0.3879 C.ar      1 <0>        -0.1375
      6 C5          0.3516   -4.0370   -0.5549 C.ar      1 <0>        -0.0407
      7 C6          0.9916   -4.5523   -1.6667 C.ar      1 <0>        -0.0627
      8 C7          1.5259   -3.7019   -2.6167 C.ar      1 <0>        -0.0400
      9 C8          1.4160   -2.3297   -2.4582 C.ar      1 <0>         0.1432
     10 O2          1.9361   -1.4917   -3.3945 O.3       1 <0>        -0.4594
     11 N1          2.2104   -4.2571   -3.8058 N.pl3     1 <0>         0.0376
     12 O3          2.3023   -5.4544   -3.9463 O.2       1 <0>        -0.1663
     13 O4          2.6777   -3.5133   -4.6365 O.3       1 <0>        -0.1310
     14 C9         -0.2290   -4.9687    0.4776 C.3       1 <0>         0.1250
     15 H1         -0.6909   -4.3895    1.2772 H         1 <0>         0.1059
     16 C10        -1.2598   -5.8605   -0.1648 C.2       1 <0>        -0.2604
     17 C11        -2.5445   -5.5448   -0.6168 C.2       1 <0>         0.1596
     18 N2         -3.0834   -6.6441   -1.1090 N.2       1 <0>        -0.2402
     19 N3         -2.1533   -7.6875   -0.9817 N.pl3     1 <0>        -0.4380
     20 H2         -2.2854   -8.6066   -1.2623 H         1 <0>         0.4524
     21 C12        -1.0433   -7.1874   -0.4003 C.2       1 <0>         0.2870
     22 O5          0.1165   -7.8097   -0.0719 O.3       1 <0>        -0.2252
     23 C13         0.9657   -7.1565    0.7471 C.2       1 <0>         0.4515
     24 C14         0.8618   -5.8417    1.0461 C.2       1 <0>        -0.2715
     25 C15         1.8214   -5.2567    1.9336 C.1       1 <0>         0.2670
     26 N4          2.5826   -4.7926    2.6376 N.1       1 <0>        -0.4300
     27 N5          1.9959   -7.8677    1.3104 N.pl3     1 <0>        -0.8245
     28 C16        -3.1887   -4.2092   -0.5537 C.ar      1 <0>        -0.0161
     29 C17        -2.9342   -3.3606    0.5217 C.ar      1 <0>        -0.0863
     30 C18        -3.5351   -2.1195    0.5757 C.ar      1 <0>        -0.1138
     31 C19        -4.3900   -1.7173   -0.4362 C.ar      1 <0>        -0.0219
     32 C20        -4.6460   -2.5569   -1.5067 C.ar      1 <0>        -0.1076
     33 C21        -4.0454   -3.7976   -1.5725 C.ar      1 <0>        -0.0717
     34 Cl1        -5.1439   -0.1553   -0.3621 Cl        1 <0>        -0.0614
     35 H3          1.0039    1.9031    0.0027 H         1 <0>         0.0683
     36 H4         -0.5459    1.8868   -0.8726 H         1 <0>         0.0702
     37 H5         -0.5289    1.8773    0.9072 H         1 <0>         0.0832
     38 H6          0.5293   -0.3651    0.8851 H         1 <0>         0.0660
     39 H7         -1.0205   -0.3814    0.0098 H         1 <0>         0.0683
     40 H8         -0.2563   -2.2690    0.4819 H         1 <0>         0.1498
     41 H9          1.0746   -5.6217   -1.7933 H         1 <0>         0.1490
     42 H10         2.8557   -1.2414   -3.2309 H         1 <0>         0.4010
     43 H11         2.0968   -8.8124    1.1151 H         1 <0>         0.4149
     44 H12         2.6231   -7.4254    1.9037 H         1 <0>         0.4298
     45 H13        -2.2679   -3.6738    1.3119 H         1 <0>         0.1384
     46 H14        -3.3384   -1.4610    1.4088 H         1 <0>         0.1403
     47 H15        -5.3140   -2.2389   -2.2935 H         1 <0>         0.1404
     48 H16        -4.2425   -4.4502   -2.4101 H         1 <0>         0.1395
@<TRIPOS>BOND
     1    1    2 1
     2    1   35 1
     3    1   36 1
     4    1   37 1
     5    2    3 1
     6    2   38 1
     7    2   39 1
     8    3    4 1
     9    4    9 ar
    10    4    5 ar
    11    5    6 ar
    12    5   40 1
    13    6    7 ar
    14    6   14 1
    15    7    8 ar
    16    7   41 1
    17    8    9 ar
    18    8   11 1
    19    9   10 1
    20   10   42 1
    21   11   12 2
    22   11   13 1
    23   14   15 1
    24   14   24 1
    25   14   16 1
    26   16   21 2
    27   16   17 1
    28   17   18 2
    29   17   28 1
    30   18   19 1
    31   19   20 1
    32   19   21 1
    33   21   22 1
    34   22   23 1
    35   23   24 2
    36   23   27 1
    37   24   25 1
    38   25   26 3
    39   27   43 1
    40   27   44 1
    41   28   33 ar
    42   28   29 ar
    43   29   30 ar
    44   29   45 1
    45   30   31 ar
    46   30   46 1
    47   31   32 ar
    48   31   34 1
    49   32   33 ar
    50   32   47 1
    51   33   48 1
@<TRIPOS>MOLECULE
ZINC05925308
   45    47     0     0     0
SMALL
USER_CHARGES
N-[4-(p-tolylsulfonylamino)phenyl]-3-(2-thienyl)prop-2-enamide
@<TRIPOS>ATOM
      1 C1          1.4275   -1.9168   -5.2976 C.3       1 <0>        -0.1264
      2 C2          0.9371   -1.4195   -3.9622 C.ar      1 <0>        -0.0252
      3 C3          1.8047   -1.3541   -2.8880 C.ar      1 <0>        -0.1410
      4 C4          1.3549   -0.8979   -1.6631 C.ar      1 <0>        -0.0085
      5 C5          0.0378   -0.5063   -1.5125 C.ar      1 <0>        -0.6825
      6 C6         -0.8310   -0.5762   -2.5855 C.ar      1 <0>        -0.0143
      7 C7         -0.3801   -1.0283   -3.8116 C.ar      1 <0>        -0.1438
      8 S1         -0.5355    0.0752    0.0488 S.o2      1 <0>         2.6901
      9 O1          0.4034   -0.3705    1.0179 O.2       1 <0>        -0.9470
     10 O2         -1.9170   -0.2496    0.1208 O.2       1 <0>        -0.9513
     11 N1         -0.4387    1.7282    0.0213 N.pl3     1 <0>        -1.0548
     12 C8          0.8049    2.3539   -0.1178 C.ar      1 <0>         0.1260
     13 C9          1.8888    1.9195    0.6343 C.ar      1 <0>        -0.1309
     14 C10         3.1172    2.5336    0.4931 C.ar      1 <0>        -0.0963
     15 C11         3.2665    3.5927   -0.3927 C.ar      1 <0>         0.1424
     16 C12         2.1813    4.0308   -1.1405 C.ar      1 <0>        -0.1283
     17 C13         0.9542    3.4131   -1.0036 C.ar      1 <0>        -0.1071
     18 N2          4.5113    4.2194   -0.5315 N.am      1 <0>        -0.6716
     19 C14         5.6450    3.5022   -0.4019 C.2       1 <0>         0.5551
     20 O3          5.5882    2.2939   -0.2583 O.2       1 <0>        -0.5258
     21 C15         6.9006    4.1525   -0.4326 C.2       1 <0>        -0.2343
     22 C16         8.0418    3.4306   -0.3021 C.2       1 <0>         0.0525
     23 C17         9.2987    4.0816   -0.3328 C.2       1 <0>        -0.1804
     24 C18        10.5716    3.5351   -0.2185 C.2       1 <0>        -0.1053
     25 C19        11.6311    4.4048   -0.2835 C.2       1 <0>        -0.1732
     26 C20        11.3917    5.7320   -0.4531 C.2       1 <0>        -0.1908
     27 S2          9.6621    5.8164   -0.5362 S.3       1 <0>         0.1362
     28 H1          1.2911   -2.9966   -5.3555 H         1 <0>         0.0807
     29 H2          0.8608   -1.4357   -6.0948 H         1 <0>         0.0733
     30 H3          2.4851   -1.6776   -5.4083 H         1 <0>         0.0736
     31 H4          2.8339   -1.6597   -3.0057 H         1 <0>         0.1337
     32 H5          2.0327   -0.8471   -0.8237 H         1 <0>         0.1424
     33 H6         -1.8611   -0.2744   -2.4667 H         1 <0>         0.1387
     34 H7         -1.0579   -1.0790   -4.6509 H         1 <0>         0.1334
     35 H8         -1.2447    2.2625    0.0976 H         1 <0>         0.4269
     36 H9          1.7717    1.0988    1.3264 H         1 <0>         0.1601
     37 H10         3.9613    2.1928    1.0744 H         1 <0>         0.1430
     38 H11         2.2974    4.8544   -1.8293 H         1 <0>         0.1315
     39 H12         0.1105    3.7533   -1.5857 H         1 <0>         0.1329
     40 H13         4.5574    5.1696   -0.7210 H         1 <0>         0.4127
     41 H14         6.9509    5.2238   -0.5598 H         1 <0>         0.1280
     42 H15         7.9915    2.3593   -0.1748 H         1 <0>         0.1526
     43 H16        10.7201    2.4738   -0.0848 H         1 <0>         0.1450
     44 H17        12.6439    4.0389   -0.2005 H         1 <0>         0.1387
     45 H18        12.1064    6.5385   -0.5241 H         1 <0>         0.1893
@<TRIPOS>BOND
     1    1    2 1
     2    1   28 1
     3    1   29 1
     4    1   30 1
     5    2    7 ar
     6    2    3 ar
     7    3    4 ar
     8    3   31 1
     9    4    5 ar
    10    4   32 1
    11    5    6 ar
    12    5    8 1
    13    6    7 ar
    14    6   33 1
    15    7   34 1
    16    8    9 2
    17    8   10 2
    18    8   11 1
    19   11   12 1
    20   11   35 1
    21   12   17 ar
    22   12   13 ar
    23   13   14 ar
    24   13   36 1
    25   14   15 ar
    26   14   37 1
    27   15   16 ar
    28   15   18 1
    29   16   17 ar
    30   16   38 1
    31   17   39 1
    32   18   19 am
    33   18   40 1
    34   19   20 2
    35   19   21 1
    36   21   22 2
    37   21   41 1
    38   22   23 1
    39   22   42 1
    40   23   27 1
    41   23   24 2
    42   24   25 1
    43   24   43 1
    44   25   26 2
    45   25   44 1
    46   26   27 1
    47   26   45 1
@<TRIPOS>MOLECULE
ZINC12526187
   38    40     0     0     0
SMALL
USER_CHARGES
N-[3-[(4-bromo-2-chloro-phenyl)sulfonylamino]phenyl]cyclopropanecarboxamide
@<TRIPOS>ATOM
      1 C1         -1.3909    3.6414   -0.5169 C.ar      1 <0>        -0.0739
      2 C2         -1.3784    2.3265   -0.9415 C.ar      1 <0>        -0.1512
      3 C3         -0.1712    1.6905   -1.2021 C.ar      1 <0>         0.1638
      4 C4          1.0226    2.3801   -1.0458 C.ar      1 <0>        -0.1312
      5 C5          1.0067    3.7021   -0.6244 C.ar      1 <0>         0.1604
      6 C6         -0.2043    4.3310   -0.3603 C.ar      1 <0>        -0.1675
      7 N1          2.2061    4.4001   -0.4662 N.pl3     1 <0>        -1.0488
      8 S1          2.3486    5.9440   -1.0480 S.o2      1 <0>         2.6896
      9 O1          1.2442    6.6754   -0.5336 O.2       1 <0>        -0.9383
     10 O2          3.6950    6.3396   -0.8245 O.2       1 <0>        -0.9293
     11 C7          2.1304    5.8647   -2.7947 C.ar      1 <0>        -0.6627
     12 C8          1.0568    6.5034   -3.3868 C.ar      1 <0>         0.0029
     13 C9          0.8851    6.4416   -4.7567 C.ar      1 <0>        -0.1061
     14 C10         1.7880    5.7408   -5.5364 C.ar      1 <0>        -0.0284
     15 C11         2.8621    5.1017   -4.9449 C.ar      1 <0>        -0.1026
     16 C12         3.0366    5.1681   -3.5740 C.ar      1 <0>         0.0602
     17 Cl1         4.3891    4.3725   -2.8313 Cl        1 <0>        -0.0262
     18 Br1         1.5527    5.6565   -7.4109 Br        1 <0>        -0.0157
     19 N2         -0.1595    0.3575   -1.6273 N.am      1 <0>        -0.6708
     20 C13         0.8531   -0.4558   -1.2671 C.2       1 <0>         0.5438
     21 O3          1.7041   -0.0609   -0.4985 O.2       1 <0>        -0.5153
     22 C14         0.9278   -1.8560   -1.8194 C.3       1 <0>        -0.2002
     23 C15         0.6899   -3.0128   -0.8467 C.3       1 <0>        -0.1500
     24 C16         2.1002   -2.7307   -1.3708 C.3       1 <0>        -0.1442
     25 H1         -2.3306    4.1323   -0.3110 H         1 <0>         0.1372
     26 H2         -2.3081    1.7913   -1.0669 H         1 <0>         0.1306
     27 H3          1.9622    1.8892   -1.2521 H         1 <0>         0.1417
     28 H4         -0.2176    5.3600   -0.0326 H         1 <0>         0.1585
     29 H5          2.9556    3.9805   -0.0156 H         1 <0>         0.4315
     30 H6          0.3521    7.0511   -2.7786 H         1 <0>         0.1650
     31 H7          0.0462    6.9407   -5.2187 H         1 <0>         0.1536
     32 H8          3.5671    4.5546   -5.5533 H         1 <0>         0.1549
     33 H9         -0.8800    0.0188   -2.1813 H         1 <0>         0.4146
     34 H10         0.5719   -1.9774   -2.8425 H         1 <0>         0.1283
     35 H11         0.4793   -2.7611    0.1927 H         1 <0>         0.1012
     36 H12         0.1778   -3.8954   -1.2300 H         1 <0>         0.1082
     37 H13         2.5154   -3.4279   -2.0986 H         1 <0>         0.1067
     38 H14         2.8176   -2.2934   -0.6764 H         1 <0>         0.1096
@<TRIPOS>BOND
     1    1    6 ar
     2    1    2 ar
     3    1   25 1
     4    2    3 ar
     5    2   26 1
     6    3    4 ar
     7    3   19 1
     8    4    5 ar
     9    4   27 1
    10    5    6 ar
    11    5    7 1
    12    6   28 1
    13    7    8 1
    14    7   29 1
    15    8    9 2
    16    8   10 2
    17    8   11 1
    18   11   16 ar
    19   11   12 ar
    20   12   13 ar
    21   12   30 1
    22   13   14 ar
    23   13   31 1
    24   14   15 ar
    25   14   18 1
    26   15   16 ar
    27   15   32 1
    28   16   17 1
    29   19   20 am
    30   19   33 1
    31   20   21 2
    32   20   22 1
    33   22   24 1
    34   22   23 1
    35   22   34 1
    36   23   24 1
    37   23   35 1
    38   23   36 1
    39   24   37 1
    40   24   38 1
@<TRIPOS>MOLECULE
ZINC25377741
   41    43     0     0     0
SMALL
USER_CHARGES
4-(benzenesulfonamido)-N-(3,4-dichlorophenyl)benzamide
@<TRIPOS>ATOM
      1 C1          5.3309    2.2088    2.3209 C.ar      1 <0>        -0.0602
      2 C2          6.2737    2.0817    1.3179 C.ar      1 <0>        -0.1389
      3 C3          6.2656    0.9682    0.4988 C.ar      1 <0>        -0.0175
      4 C4          5.3154   -0.0186    0.6833 C.ar      1 <0>        -0.6768
      5 C5          4.3729    0.1082    1.6865 C.ar      1 <0>        -0.0192
      6 C6          4.3806    1.2220    2.5053 C.ar      1 <0>        -0.1402
      7 S1          5.3052   -1.4380   -0.3608 S.o2      1 <0>         2.6903
      8 O1          6.5903   -1.5085   -0.9629 O.2       1 <0>        -0.9465
      9 O2          4.7646   -2.5038    0.4080 O.2       1 <0>        -0.9494
     10 N1          4.2263   -1.1402   -1.5814 N.pl3     1 <0>        -1.0796
     11 C7          4.4595   -0.1030   -2.4777 C.ar      1 <0>         0.1609
     12 C8          3.7106    1.0677   -2.3953 C.ar      1 <0>        -0.1199
     13 C9          3.9422    2.0979   -3.2778 C.ar      1 <0>        -0.0777
     14 C10         4.9235    1.9638   -4.2645 C.ar      1 <0>        -0.1311
     15 C11         5.6702    0.7848   -4.3479 C.ar      1 <0>        -0.0448
     16 C12         5.4374   -0.2397   -3.4591 C.ar      1 <0>        -0.1132
     17 C13         5.1702    3.0636   -5.2158 C.2       1 <0>         0.5625
     18 O3          6.0238    2.9454   -6.0739 O.2       1 <0>        -0.5105
     19 N2          4.4495    4.1995   -5.1342 N.am      1 <0>        -0.6814
     20 C14         4.7484    5.2793   -5.9720 C.ar      1 <0>         0.1681
     21 C15         4.6078    6.5806   -5.5068 C.ar      1 <0>        -0.1298
     22 C16         4.9084    7.6450   -6.3337 C.ar      1 <0>        -0.0779
     23 C17         5.3390    7.4168   -7.6288 C.ar      1 <0>        -0.0485
     24 C18         5.4747    6.1209   -8.0976 C.ar      1 <0>        -0.0113
     25 C19         5.1805    5.0520   -7.2718 C.ar      1 <0>        -0.1057
     26 Cl1         6.0152    5.8383   -9.7229 Cl        1 <0>        -0.0403
     27 Cl2         5.7101    8.7574   -8.6675 Cl        1 <0>        -0.0466
     28 H1          5.3339    3.0813    2.9575 H         1 <0>         0.1324
     29 H2          7.0161    2.8527    1.1739 H         1 <0>         0.1339
     30 H3          7.0018    0.8693   -0.2852 H         1 <0>         0.1403
     31 H4          3.6302   -0.6626    1.8304 H         1 <0>         0.1393
     32 H5          3.6440    1.3212    3.2889 H         1 <0>         0.1344
     33 H6          3.3252   -1.7629   -1.6831 H         1 <0>         0.4567
     34 H7          2.9498    1.1691   -1.6355 H         1 <0>         0.1374
     35 H8          3.3640    3.0076   -3.2106 H         1 <0>         0.1316
     36 H9          6.4293    0.6783   -5.1088 H         1 <0>         0.1463
     37 H10         6.0142   -1.1506   -3.5227 H         1 <0>         0.1458
     38 H11         3.6262    4.2776   -4.4089 H         1 <0>         0.4377
     39 H12         4.2675    6.7597   -4.4975 H         1 <0>         0.1427
     40 H13         4.8033    8.6566   -5.9705 H         1 <0>         0.1481
     41 H14         5.2864    4.0413   -7.6373 H         1 <0>         0.1588
@<TRIPOS>BOND
     1    1    6 ar
     2    1    2 ar
     3    1   28 1
     4    2    3 ar
     5    2   29 1
     6    3    4 ar
     7    3   30 1
     8    4    5 ar
     9    4    7 1
    10    5    6 ar
    11    5   31 1
    12    6   32 1
    13    7    8 2
    14    7    9 2
    15    7   10 1
    16   10   11 1
    17   10   33 1
    18   11   16 ar
    19   11   12 ar
    20   12   13 ar
    21   12   34 1
    22   13   14 ar
    23   13   35 1
    24   14   15 ar
    25   14   17 1
    26   15   16 ar
    27   15   36 1
    28   16   37 1
    29   17   18 2
    30   17   19 am
    31   19   20 1
    32   19   38 1
    33   20   25 ar
    34   20   21 ar
    35   21   22 ar
    36   21   39 1
    37   22   23 ar
    38   22   40 1
    39   23   24 ar
    40   23   27 1
    41   24   25 ar
    42   24   26 1
    43   25   41 1
@<TRIPOS>MOLECULE
ZINC40135349
   54    56     0     0     0
SMALL
USER_CHARGES

@<TRIPOS>ATOM
      1 C1         -0.3505    1.4954    0.2985 C.3       1 <0>        -0.1391
      2 C2         -1.1534    0.4442    1.0674 C.3       1 <0>         0.1432
      3 H1         -1.4835   -0.3367    0.3823 H         1 <0>         0.0727
      4 C3         -2.3725    1.1046    1.7191 C.3       1 <0>        -0.1314
      5 C4         -3.0931    0.0803    2.5987 C.3       1 <0>        -0.1227
      6 C5         -2.1512   -0.3951    3.7072 C.3       1 <0>        -0.1283
      7 C6         -0.9296   -1.0725    3.0781 C.3       1 <0>         0.1289
      8 H2         -0.2099   -1.3243    3.8570 H         1 <0>         0.0969
      9 N1         -0.3132   -0.1456    2.1185 N.am      1 <0>        -0.5947
     10 C7          0.9966    0.1604    2.2031 C.2       1 <0>         0.5683
     11 O1          1.4740    0.9991    1.4632 O.2       1 <0>        -0.5235
     12 C8          1.8506   -0.5216    3.1927 C.ar      1 <0>        -0.1970
     13 C9          1.9186   -1.9171    3.2195 C.ar      1 <0>        -0.0301
     14 C10         2.7189   -2.5486    4.1473 C.ar      1 <0>        -0.0970
     15 C11         3.4583   -1.8056    5.0558 C.ar      1 <0>        -0.0377
     16 C12         3.4008   -0.4274    5.0415 C.ar      1 <0>        -0.1926
     17 C13         2.6045    0.2268    4.1096 C.ar      1 <0>         0.2682
     18 N2          2.5505    1.6149    4.0893 N.pl3     1 <0>        -0.7215
     19 C14         3.2489    2.3902    5.1176 C.3       1 <0>         0.1031
     20 C15         3.0335    3.8611    4.8706 C.2       1 <0>         0.5119
     21 O2          2.3626    4.2260    3.9282 O.2       1 <0>        -0.5025
     22 N3          3.5863    4.7713    5.6967 N.am      1 <0>        -0.6640
     23 C16         3.3161    6.1349    5.5185 C.ar      1 <0>         0.1058
     24 C17         2.1028    6.5382    4.9785 C.ar      1 <0>        -0.0687
     25 C18         1.8380    7.8827    4.8036 C.ar      1 <0>        -0.1392
     26 C19         2.7817    8.8290    5.1663 C.ar      1 <0>         0.1181
     27 C20         3.9934    8.4306    5.7049 C.ar      1 <0>        -0.1700
     28 C21         4.2606    7.0859    5.8877 C.ar      1 <0>         0.1043
     29 F1          5.4404    6.6969    6.4188 F         1 <0>        -0.1270
     30 F2          2.5198   10.1431    4.9939 F         1 <0>        -0.1280
     31 Cl1         2.8015   -4.2824    4.1793 Cl        1 <0>        -0.0695
     32 C22        -1.3666   -2.3465    2.3523 C.3       1 <0>        -0.1674
     33 H3          0.4520    1.0070   -0.2542 H         1 <0>         0.0686
     34 H4         -1.0072    2.0160   -0.3985 H         1 <0>         0.0444
     35 H5          0.0757    2.2121    1.0005 H         1 <0>         0.0756
     36 H6         -2.0468    1.9452    2.3317 H         1 <0>         0.0672
     37 H7         -3.0514    1.4601    0.9440 H         1 <0>         0.0757
     38 H8         -3.9749    0.5408    3.0443 H         1 <0>         0.0666
     39 H9         -3.3968   -0.7714    1.9901 H         1 <0>         0.0681
     40 H10        -1.8275    0.4596    4.3012 H         1 <0>         0.0660
     41 H11        -2.6725   -1.1070    4.3472 H         1 <0>         0.0773
     42 H12         1.3445   -2.5001    2.5145 H         1 <0>         0.1378
     43 H13         4.0825   -2.3093    5.7790 H         1 <0>         0.1385
     44 H14         3.9790    0.1439    5.7526 H         1 <0>         0.1371
     45 H15         2.0503    2.0707    3.3944 H         1 <0>         0.4219
     46 H16         2.8580    2.1258    6.1002 H         1 <0>         0.1037
     47 H17         4.3152    2.1676    5.0789 H         1 <0>         0.1027
     48 H18         4.1713    4.4825    6.4146 H         1 <0>         0.4191
     49 H19         1.3661    5.8012    4.6949 H         1 <0>         0.1595
     50 H20         0.8939    8.1961    4.3830 H         1 <0>         0.1494
     51 H21         4.7281    9.1702    5.9868 H         1 <0>         0.1554
     52 H22        -2.0824   -2.0919    1.5706 H         1 <0>         0.0647
     53 H23        -0.4962   -2.8268    1.9054 H         1 <0>         0.0593
     54 H24        -1.8326   -3.0283    3.0636 H         1 <0>         0.0719
@<TRIPOS>BOND
     1    1    2 1
     2    1   33 1
     3    1   34 1
     4    1   35 1
     5    2    3 1
     6    2    9 1
     7    2    4 1
     8    4    5 1
     9    4   36 1
    10    4   37 1
    11    5    6 1
    12    5   38 1
    13    5   39 1
    14    6    7 1
    15    6   40 1
    16    6   41 1
    17    7    8 1
    18    7    9 1
    19    7   32 1
    20    9   10 am
    21   10   11 2
    22   10   12 1
    23   12   17 ar
    24   12   13 ar
    25   13   14 ar
    26   13   42 1
    27   14   15 ar
    28   14   31 1
    29   15   16 ar
    30   15   43 1
    31   16   17 ar
    32   16   44 1
    33   17   18 1
    34   18   19 1
    35   18   45 1
    36   19   20 1
    37   19   46 1
    38   19   47 1
    39   20   21 2
    40   20   22 am
    41   22   23 1
    42   22   48 1
    43   23   28 ar
    44   23   24 ar
    45   24   25 ar
    46   24   49 1
    47   25   26 ar
    48   25   50 1
    49   26   27 ar
    50   26   30 1
    51   27   28 ar
    52   27   51 1
    53   28   29 1
    54   32   52 1
    55   32   53 1
    56   32   54 1
@<TRIPOS>MOLECULE
ZINC62040004
   50    54     0     0     0
SMALL
USER_CHARGES

@<TRIPOS>ATOM
      1 C1          0.0273    1.5387    0.6811 C.3       1 <0>        -0.0709
      2 C2          0.0460    0.0733    0.3298 C.2       1 <0>        -0.1253
      3 C3         -1.0032   -0.7346    0.0493 C.2       1 <0>        -0.0559
      4 C4         -0.7455   -2.1354   -0.2675 C.ar      1 <0>        -0.2454
      5 C5         -1.6588   -3.1739   -0.5929 C.ar      1 <0>         0.4948
      6 N1         -1.1941   -4.3865   -0.8477 N.ar      1 <0>        -0.5810
      7 C6          0.0963   -4.6666   -0.8098 C.ar      1 <0>         0.3885
      8 N2          0.9913   -3.7445   -0.5135 N.ar      1 <0>        -0.5223
      9 C7          0.6138   -2.5090   -0.2465 C.ar      1 <0>         0.1547
     10 S1          1.4556   -1.0070    0.1769 S.3       1 <0>         0.1178
     11 C8          0.5554   -6.0700   -1.1111 C.3       1 <0>        -0.0847
     12 N3         -3.0180   -2.9206   -0.6425 N.pl3     1 <0>        -0.7045
     13 C9         -3.9607   -4.0208   -0.8593 C.3       1 <0>         0.1341
     14 C10        -5.3894   -3.4733   -0.8712 C.3       1 <0>        -0.0541
     15 C11        -6.3591   -4.6051   -1.0943 C.2       1 <0>         0.2864
     16 N4         -7.4087   -4.9036   -0.2819 N.pl3     1 <0>        -0.5963
     17 H1         -7.6603   -4.4335    0.5284 H         1 <0>         0.4226
     18 C12        -8.0495   -5.9992   -0.8248 C.ar      1 <0>         0.0486
     19 C13        -9.1594   -6.7492   -0.4598 C.ar      1 <0>        -0.1131
     20 C14        -9.5508   -7.8146   -1.2422 C.ar      1 <0>        -0.0979
     21 C15        -8.8431   -8.1416   -2.3902 C.ar      1 <0>        -0.1267
     22 C16        -7.7487   -7.4150   -2.7648 C.ar      1 <0>        -0.0620
     23 C17        -7.3336   -6.3305   -1.9875 C.ar      1 <0>         0.0467
     24 N5         -6.3179   -5.4357   -2.0949 N.2       1 <0>        -0.4792
     25 C18        -2.3881   -0.2062    0.0641 C.ar      1 <0>        -0.0534
     26 C19        -2.8329    0.6186   -0.9683 C.ar      1 <0>        -0.0715
     27 C20        -4.1228    1.1080   -0.9501 C.ar      1 <0>        -0.1484
     28 C21        -4.9754    0.7814    0.0920 C.ar      1 <0>         0.1055
     29 C22        -4.5377   -0.0374    1.1203 C.ar      1 <0>        -0.1538
     30 C23        -3.2517   -0.5371    1.1075 C.ar      1 <0>        -0.0809
     31 F1         -6.2374    1.2634    0.1058 F         1 <0>        -0.1345
     32 H2          1.0476    1.8865    0.8429 H         1 <0>         0.0788
     33 H3         -0.4235    2.1024   -0.1356 H         1 <0>         0.0840
     34 H4         -0.5556    1.6870    1.5902 H         1 <0>         0.0841
     35 H5          0.7475   -6.1679   -2.1795 H         1 <0>         0.0917
     36 H6          1.4701   -6.2799   -0.5567 H         1 <0>         0.0902
     37 H7         -0.2194   -6.7772   -0.8149 H         1 <0>         0.0897
     38 H8         -3.3467   -2.0145   -0.5337 H         1 <0>         0.4112
     39 H9         -3.7470   -4.4993   -1.8151 H         1 <0>         0.0910
     40 H10        -3.8580   -4.7508   -0.0565 H         1 <0>         0.0732
     41 H11        -5.6031   -2.9948    0.0845 H         1 <0>         0.0887
     42 H12        -5.4921   -2.7433   -1.6741 H         1 <0>         0.1031
     43 H13        -9.7133   -6.4993    0.4330 H         1 <0>         0.1236
     44 H14       -10.4140   -8.3989   -0.9595 H         1 <0>         0.1318
     45 H15        -9.1605   -8.9794   -2.9934 H         1 <0>         0.1314
     46 H16        -7.2050   -7.6785   -3.6600 H         1 <0>         0.1308
     47 H17        -2.1688    0.8743   -1.7806 H         1 <0>         0.1387
     48 H18        -4.4683    1.7470   -1.7493 H         1 <0>         0.1430
     49 H19        -5.2057   -0.2887    1.9309 H         1 <0>         0.1413
     50 H20        -2.9130   -1.1795    1.9068 H         1 <0>         0.1362
@<TRIPOS>BOND
     1    1    2 1
     2    1   32 1
     3    1   33 1
     4    1   34 1
     5    2   10 1
     6    2    3 2
     7    3    4 1
     8    3   25 1
     9    4    9 ar
    10    4    5 ar
    11    5    6 ar
    12    5   12 1
    13    6    7 ar
    14    7    8 ar
    15    7   11 1
    16    8    9 ar
    17    9   10 1
    18   11   35 1
    19   11   36 1
    20   11   37 1
    21   12   13 1
    22   12   38 1
    23   13   14 1
    24   13   39 1
    25   13   40 1
    26   14   15 1
    27   14   41 1
    28   14   42 1
    29   15   24 2
    30   15   16 1
    31   16   17 1
    32   16   18 1
    33   18   23 ar
    34   18   19 ar
    35   19   20 ar
    36   19   43 1
    37   20   21 ar
    38   20   44 1
    39   21   22 ar
    40   21   45 1
    41   22   23 ar
    42   22   46 1
    43   23   24 1
    44   25   30 ar
    45   25   26 ar
    46   26   27 ar
    47   26   47 1
    48   27   28 ar
    49   27   48 1
    50   28   29 ar
    51   28   31 1
    52   29   30 ar
    53   29   49 1
    54   30   50 1
@<TRIPOS>MOLECULE
ZINC20154578
   34    36     0     0     0
SMALL
USER_CHARGES
[4-hydroxy-3-(5-methyl-1,3-benzoxazol-2-yl)phenyl]thiourea
@<TRIPOS>ATOM
      1 C1        -11.8986    3.1579   -0.5524 C.3       1 <0>        -0.1151
      2 C2        -10.3987    3.2821   -0.4743 C.ar      1 <0>        -0.0851
      3 C3         -9.8113    4.5386   -0.4558 C.ar      1 <0>        -0.0950
      4 C4         -8.4397    4.6692   -0.3836 C.ar      1 <0>        -0.0885
      5 C5         -7.6397    3.5385   -0.3308 C.ar      1 <0>        -0.0004
      6 C6         -8.2299    2.2644   -0.3498 C.ar      1 <0>         0.0304
      7 C7         -9.6203    2.1477   -0.4222 C.ar      1 <0>        -0.0648
      8 N1         -7.2153    1.3635   -0.2936 N.2       1 <0>        -0.4471
      9 C8         -6.0793    2.0123   -0.2343 C.2       1 <0>         0.3031
     10 O1         -6.3045    3.3397   -0.2588 O.3       1 <0>        -0.2153
     11 C9         -4.7468    1.3810   -0.1582 C.ar      1 <0>        -0.0793
     12 C10        -3.5981    2.1723   -0.1048 C.ar      1 <0>        -0.0459
     13 C11        -2.3517    1.5734   -0.0331 C.ar      1 <0>         0.0843
     14 C12        -2.2430    0.1872   -0.0201 C.ar      1 <0>        -0.0024
     15 C13        -3.3759   -0.6009   -0.0669 C.ar      1 <0>        -0.2117
     16 C14        -4.6297   -0.0145   -0.1389 C.ar      1 <0>         0.2237
     17 O2         -5.7424   -0.7916   -0.1910 O.3       1 <0>        -0.4705
     18 N2         -1.1974    2.3657    0.0206 N.pl3     1 <0>        -0.6419
     19 C15        -0.1921    2.0362    0.8556 C.2       1 <0>         0.5772
     20 S1         -0.3814    0.7345    1.9514 S.2       1 <0>        -0.6414
     21 N3          0.9643    2.7278    0.8241 N.pl3     1 <0>        -0.8225
     22 H1        -12.3483    4.1612   -0.5859 H         1 <0>         0.0700
     23 H2        -12.2685    2.6196    0.3327 H         1 <0>         0.0738
     24 H3        -12.1737    2.6023   -1.4610 H         1 <0>         0.0737
     25 H4        -10.4322    5.4212   -0.4975 H         1 <0>         0.1405
     26 H5         -7.9900    5.6510   -0.3691 H         1 <0>         0.1349
     27 H6        -10.0825    1.1718   -0.4369 H         1 <0>         0.1360
     28 H7         -3.6814    3.2490   -0.1190 H         1 <0>         0.1387
     29 H8         -1.2683   -0.2751    0.0315 H         1 <0>         0.1507
     30 H9         -3.2845   -1.6769   -0.0523 H         1 <0>         0.1441
     31 H10        -5.6491   -1.8875   -0.1758 H         1 <0>         0.4355
     32 H11        -1.1116    3.2567   -0.6188 H         1 <0>         0.4305
     33 H12         1.7848    2.4588    1.5056 H         1 <0>         0.4634
     34 H13         1.0876    3.5612    0.1169 H         1 <0>         0.4165
@<TRIPOS>BOND
     1    1    2 1
     2    1   22 1
     3    1   23 1
     4    1   24 1
     5    2    7 ar
     6    2    3 ar
     7    3    4 ar
     8    3   25 1
     9    4    5 ar
    10    4   26 1
    11    5   10 1
    12    5    6 ar
    13    6    7 ar
    14    6    8 1
    15    7   27 1
    16    8    9 2
    17    9   10 1
    18    9   11 1
    19   11   16 ar
    20   11   12 ar
    21   12   13 ar
    22   12   28 1
    23   13   14 ar
    24   13   18 1
    25   14   15 ar
    26   14   29 1
    27   15   16 ar
    28   15   30 1
    29   16   17 1
    30   17   31 1
    31   18   19 1
    32   18   32 1
    33   19   20 2
    34   19   21 1
    35   21   33 1
    36   21   34 1
@<TRIPOS>MOLECULE
ZINC40371586
   50    51     0     0     0
SMALL
USER_CHARGES

@<TRIPOS>ATOM
      1 C1          0.3646    1.3413    1.4326 C.3       1 <0>        -0.1179
      2 C2          1.6916    1.9132    0.8938 C.3       1 <0>        -0.1354
      3 C3          1.7085    1.8252   -0.6392 C.3       1 <0>        -0.1128
      4 C4          1.9194    0.3899   -1.1148 C.3       1 <0>        -0.1134
      5 C5          3.0482   -0.3668   -0.4109 C.3       1 <0>         0.2111
      6 C6          2.4050   -1.4095    0.5097 C.3       1 <0>        -0.1326
      7 C7          1.7272   -0.7509    1.7262 C.3       1 <0>        -0.1133
      8 C8          0.3677   -0.1902    1.3001 C.3       1 <0>        -0.1249
      9 C9          3.7823   -1.1518   -1.4990 C.2       1 <0>         0.3725
     10 N1          3.1527   -2.0461   -2.1865 N.2       1 <0>        -0.4326
     11 O1          1.7551   -2.2080   -2.0263 O.3       1 <0>        -0.4104
     12 N2          5.1146   -0.9054   -1.7458 N.pl3     1 <0>        -0.8242
     13 N3          4.0290    0.4648    0.2443 N.am      1 <0>        -0.7193
     14 C10         4.9979   -0.0984    0.9930 C.2       1 <0>         0.5110
     15 O2          5.1042   -1.3056    1.0390 O.2       1 <0>        -0.5115
     16 C11         5.9493    0.7720    1.7730 C.3       1 <0>        -0.1064
     17 C12         6.7102    1.6859    0.8103 C.3       1 <0>        -0.1137
     18 C13         7.6761    2.5696    1.6022 C.3       1 <0>        -0.1179
     19 C14         8.6697    1.6871    2.3604 C.3       1 <0>        -0.1231
     20 C15         7.9088    0.7732    3.3230 C.3       1 <0>        -0.1209
     21 C16         6.9429   -0.1105    2.5311 C.3       1 <0>        -0.0989
     22 H1          0.2618    1.6118    2.4806 H         1 <0>         0.0594
     23 H2         -0.4594    1.7514    0.8543 H         1 <0>         0.0622
     24 H3          1.6874    2.9936    1.1469 H         1 <0>         0.0490
     25 H4          2.5225    1.4815    1.3896 H         1 <0>         0.0826
     26 H5          0.7550    2.1968   -1.0227 H         1 <0>         0.0733
     27 H6          2.5108    2.4590   -1.0217 H         1 <0>         0.0584
     28 H7          0.9926   -0.1733   -1.0518 H         1 <0>         0.0978
     29 H8          2.1776    0.4331   -2.1905 H         1 <0>         0.0581
     30 H9          1.6556   -1.9707   -0.0487 H         1 <0>         0.0986
     31 H10         3.1746   -2.0947    0.8679 H         1 <0>         0.0802
     32 H11         1.5589   -1.5315    2.4793 H         1 <0>         0.0548
     33 H12         2.3573    0.0107    2.1529 H         1 <0>         0.0685
     34 H13        -0.3969   -0.5883    1.9813 H         1 <0>         0.0520
     35 H14         0.1157   -0.4888    0.2953 H         1 <0>         0.0738
     36 H15         1.3731   -2.9008   -2.5824 H         1 <0>         0.3935
     37 H16         5.5625   -0.1695   -1.2998 H         1 <0>         0.4043
     38 H17         5.6052   -1.4677   -2.3655 H         1 <0>         0.4022
     39 H18         3.9909    1.4291    0.1459 H         1 <0>         0.4041
     40 H19         5.3875    1.3791    2.4828 H         1 <0>         0.0984
     41 H20         7.2720    1.0788    0.1005 H         1 <0>         0.0689
     42 H21         6.0023    2.3146    0.2702 H         1 <0>         0.0660
     43 H22         8.2182    3.2207    0.9164 H         1 <0>         0.0672
     44 H23         7.1143    3.1768    2.3120 H         1 <0>         0.0653
     45 H24         9.2316    1.0800    1.6506 H         1 <0>         0.0632
     46 H25         9.3579    2.3167    2.9245 H         1 <0>         0.0638
     47 H26         8.6167    0.1445    3.8631 H         1 <0>         0.0664
     48 H27         7.3470    1.3803    4.0328 H         1 <0>         0.0626
     49 H28         6.4009   -0.7616    3.2169 H         1 <0>         0.0695
     50 H29         7.5048   -0.7176    1.8213 H         1 <0>         0.0705
@<TRIPOS>BOND
     1    1    8 1
     2    1    2 1
     3    1   22 1
     4    1   23 1
     5    2    3 1
     6    2   24 1
     7    2   25 1
     8    3    4 1
     9    3   26 1
    10    3   27 1
    11    4    5 1
    12    4   28 1
    13    4   29 1
    14    5    6 1
    15    5    9 1
    16    5   13 1
    17    6    7 1
    18    6   30 1
    19    6   31 1
    20    7    8 1
    21    7   32 1
    22    7   33 1
    23    8   34 1
    24    8   35 1
    25    9   10 2
    26    9   12 1
    27   10   11 1
    28   11   36 1
    29   12   37 1
    30   12   38 1
    31   13   14 am
    32   13   39 1
    33   14   15 2
    34   14   16 1
    35   16   21 1
    36   16   17 1
    37   16   40 1
    38   17   18 1
    39   17   41 1
    40   17   42 1
    41   18   19 1
    42   18   43 1
    43   18   44 1
    44   19   20 1
    45   19   45 1
    46   19   46 1
    47   20   21 1
    48   20   47 1
    49   20   48 1
    50   21   49 1
    51   21   50 1
@<TRIPOS>MOLECULE
ZINC44865806
   31    31     0     0     0
SMALL
USER_CHARGES

@<TRIPOS>ATOM
      1 C1          0.9436   -1.7001    0.9693 C.3       1 <0>        -0.1528
      2 C2          0.1425   -1.5976   -0.3301 C.3       1 <0>        -0.0999
      3 C3         -0.9124   -0.4980   -0.1936 C.3       1 <0>        -0.0426
      4 H1         -0.4368    0.4214    0.1478 H         1 <0>         0.1200
      5 C4         -1.9563   -0.9247    0.8061 C.2       1 <0>         0.3667
      6 N1         -2.1623   -2.1804    1.0288 N.2       1 <0>        -0.3943
      7 O1         -3.1431   -2.5813    1.9680 O.3       1 <0>        -0.4223
      8 N2         -2.6907    0.0241    1.4823 N.pl3     1 <0>        -0.8706
      9 C5         -1.5653   -0.2593   -1.5307 C.2       1 <0>         0.5255
     10 O2         -1.5500   -1.1282   -2.3767 O.2       1 <0>        -0.4921
     11 N3         -2.1660    0.9198   -1.7864 N.am      1 <0>        -0.6674
     12 C6         -2.6759    1.1833   -3.0636 C.ar      1 <0>         0.1467
     13 C7         -3.1542    0.1430   -3.8495 C.ar      1 <0>        -0.0931
     14 C8         -3.6572    0.4044   -5.1089 C.ar      1 <0>        -0.1196
     15 C9         -3.6847    1.7029   -5.5889 C.ar      1 <0>         0.0964
     16 C10        -3.2081    2.7427   -4.8068 C.ar      1 <0>        -0.0552
     17 C11        -2.7092    2.4855   -3.5435 C.ar      1 <0>        -0.1114
     18 Cl1        -3.2437    4.3698   -5.4110 Cl        1 <0>        -0.0409
     19 F1         -4.1764    1.9563   -6.8215 F         1 <0>        -0.1245
     20 H2          1.8055   -2.3492    0.8146 H         1 <0>         0.0640
     21 H3          1.2844   -0.7079    1.2652 H         1 <0>         0.0527
     22 H4          0.3117   -2.1162    1.7539 H         1 <0>         0.0602
     23 H5          0.8149   -1.3559   -1.1533 H         1 <0>         0.0772
     24 H6         -0.3489   -2.5498   -0.5300 H         1 <0>         0.0934
     25 H7         -3.2249   -3.5398    2.0664 H         1 <0>         0.4038
     26 H8         -2.5361    0.9670    1.3151 H         1 <0>         0.3940
     27 H9         -3.3626   -0.2505    2.1257 H         1 <0>         0.4116
     28 H10        -2.2452    1.5858   -1.0856 H         1 <0>         0.4132
     29 H11        -3.1324   -0.8701   -3.4761 H         1 <0>         0.1619
     30 H12        -4.0291   -0.4047   -5.7200 H         1 <0>         0.1514
     31 H13        -2.3415    3.2964   -2.9322 H         1 <0>         0.1478
@<TRIPOS>BOND
     1    1    2 1
     2    1   20 1
     3    1   21 1
     4    1   22 1
     5    2    3 1
     6    2   23 1
     7    2   24 1
     8    3    4 1
     9    3    5 1
    10    3    9 1
    11    5    6 2
    12    5    8 1
    13    6    7 1
    14    7   25 1
    15    8   26 1
    16    8   27 1
    17    9   10 2
    18    9   11 am
    19   11   12 1
    20   11   28 1
    21   12   17 ar
    22   12   13 ar
    23   13   14 ar
    24   13   29 1
    25   14   15 ar
    26   14   30 1
    27   15   16 ar
    28   15   19 1
    29   16   17 ar
    30   16   18 1
    31   17   31 1
@<TRIPOS>MOLECULE
ZINC51994630
   36    37     0     0     0
SMALL
USER_CHARGES

@<TRIPOS>ATOM
      1 C1         -1.3143   -2.5867    2.2559 C.ar      1 <0>        -0.0685
      2 C2         -1.7361   -3.5454    3.1670 C.ar      1 <0>         0.1762
      3 C3         -2.9907   -4.1287    3.0275 C.ar      1 <0>         0.0853
      4 C4         -3.8137   -3.7520    1.9821 C.ar      1 <0>        -0.1145
      5 C5         -3.3890   -2.7963    1.0759 C.ar      1 <0>         0.0372
      6 C6         -2.1411   -2.2146    1.2135 C.ar      1 <0>        -0.6336
      7 S1         -1.6055   -0.9977    0.0572 S.o2      1 <0>         2.6938
      8 O1         -2.6637   -0.0568   -0.0617 O.2       1 <0>        -0.9417
      9 O2         -0.2910   -0.6210    0.4436 O.2       1 <0>        -0.9521
     10 N1         -1.4701   -1.7462   -1.4139 N.pl3     1 <0>        -1.0945
     11 C7         -0.4886   -2.8171   -1.6033 C.3       1 <0>         0.1664
     12 H1         -0.2615   -3.2762   -0.6411 H         1 <0>         0.0895
     13 C8          0.7918   -2.2348   -2.2053 C.3       1 <0>        -0.1381
     14 C9          0.4730   -1.5903   -3.5559 C.3       1 <0>        -0.1222
     15 C10        -0.1010   -2.6467   -4.5023 C.3       1 <0>        -0.1201
     16 C11        -1.3813   -3.2290   -3.9002 C.3       1 <0>        -0.1526
     17 C12        -1.0626   -3.8734   -2.5497 C.3       1 <0>         0.1015
     18 H2         -0.3323   -4.6702   -2.6906 H         1 <0>         0.0673
     19 O3         -2.2584   -4.4173   -1.9873 O.3       1 <0>        -0.5561
     20 Cl1        -4.4240   -2.3263   -0.2362 Cl        1 <0>        -0.0302
     21 F1         -3.4048   -5.0624    3.9118 F         1 <0>        -0.1271
     22 N2         -0.9004   -3.9242    4.2232 N.pl3     1 <0>        -0.8664
     23 H3         -0.3422   -2.1289    2.3644 H         1 <0>         0.1596
     24 H4         -4.7884   -4.2042    1.8725 H         1 <0>         0.1547
     25 H5         -2.0408   -1.4755   -2.1501 H         1 <0>         0.4203
     26 H6          1.2007   -1.4822   -1.5311 H         1 <0>         0.0868
     27 H7          1.5221   -3.0316   -2.3463 H         1 <0>         0.0776
     28 H8         -0.2573   -0.7935   -3.4150 H         1 <0>         0.0663
     29 H9          1.3852   -1.1755   -3.9848 H         1 <0>         0.0685
     30 H10        -0.3280   -2.1876   -5.4644 H         1 <0>         0.0670
     31 H11         0.6293   -3.4435   -4.6432 H         1 <0>         0.0651
     32 H12        -2.1116   -2.4322   -3.7593 H         1 <0>         0.0716
     33 H13        -1.7902   -3.9815   -4.5744 H         1 <0>         0.0687
     34 H14        -2.6777   -5.0950   -2.5350 H         1 <0>         0.3787
     35 H15        -0.0253   -3.5169    4.3194 H         1 <0>         0.4087
     36 H16        -1.1961   -4.5942    4.8593 H         1 <0>         0.4069
@<TRIPOS>BOND
     1    1    6 ar
     2    1    2 ar
     3    1   23 1
     4    2    3 ar
     5    2   22 1
     6    3    4 ar
     7    3   21 1
     8    4    5 ar
     9    4   24 1
    10    5    6 ar
    11    5   20 1
    12    6    7 1
    13    7    8 2
    14    7    9 2
    15    7   10 1
    16   10   11 1
    17   10   25 1
    18   11   12 1
    19   11   17 1
    20   11   13 1
    21   13   14 1
    22   13   26 1
    23   13   27 1
    24   14   15 1
    25   14   28 1
    26   14   29 1
    27   15   16 1
    28   15   30 1
    29   15   31 1
    30   16   17 1
    31   16   32 1
    32   16   33 1
    33   17   18 1
    34   17   19 1
    35   19   34 1
    36   22   35 1
    37   22   36 1
@<TRIPOS>MOLECULE
ZINC61886401
   35    36     0     0     0
SMALL
USER_CHARGES

@<TRIPOS>ATOM
      1 C1          0.3448    1.6782   -0.0600 C.ar      1 <0>        -0.0327
      2 C2          1.5719    2.3143   -0.0828 C.ar      1 <0>        -0.1560
      3 C3          2.7384    1.5719   -0.0921 C.ar      1 <0>         0.1781
      4 C4          2.6734    0.1749   -0.0779 C.ar      1 <0>        -0.1708
      5 C5          1.4297   -0.4590   -0.0543 C.ar      1 <0>        -0.0289
      6 C6          0.2742    0.2951   -0.0458 C.ar      1 <0>        -0.1151
      7 Br1        -1.4109   -0.5625   -0.0139 Br        1 <0>        -0.0279
      8 C7          3.9144   -0.6258   -0.0881 C.2       1 <0>         0.5625
      9 O1          4.9958   -0.0708   -0.1090 O.2       1 <0>        -0.5155
     10 N1          3.8479   -1.9719   -0.0743 N.am      1 <0>        -0.7177
     11 C8          5.0789   -2.7662   -0.0845 C.3       1 <0>         0.1468
     12 H1          5.8593   -2.2521    0.4765 H         1 <0>         0.0976
     13 C9          5.5407   -3.0041   -1.5329 C.3       1 <0>        -0.1365
     14 C10         5.5416   -4.5315   -1.7499 C.3       1 <0>        -0.1234
     15 C11         5.6823   -5.1177   -0.3232 C.3       1 <0>        -0.1086
     16 C12         4.8155   -4.1568    0.5293 C.3       1 <0>        -0.0902
     17 H2          3.7607   -4.4178    0.4441 H         1 <0>         0.1104
     18 C13         5.2534   -4.1885    1.9709 C.2       1 <0>         0.3834
     19 N2          4.5746   -4.8647    2.8374 N.2       1 <0>        -0.4300
     20 O2          3.4862   -5.6660    2.4150 O.3       1 <0>        -0.4125
     21 N3          6.3771   -3.4965    2.3647 N.pl3     1 <0>        -0.8316
     22 F1          3.9374    2.1942   -0.1154 F         1 <0>        -0.1059
     23 H3         -0.5633    2.2627   -0.0487 H         1 <0>         0.1512
     24 H4          1.6195    3.3932   -0.0938 H         1 <0>         0.1558
     25 H5          1.3721   -1.5374   -0.0436 H         1 <0>         0.1444
     26 H6          2.9851   -2.4147   -0.0577 H         1 <0>         0.4004
     27 H7          4.8489   -2.5286   -2.2283 H         1 <0>         0.0744
     28 H8          6.5456   -2.6063   -1.6746 H         1 <0>         0.0780
     29 H9          4.6041   -4.8529   -2.2036 H         1 <0>         0.0709
     30 H10         6.3878   -4.8283   -2.3695 H         1 <0>         0.0753
     31 H11         5.2879   -6.1331   -0.2821 H         1 <0>         0.0796
     32 H12         6.7217   -5.0924    0.0041 H         1 <0>         0.0759
     33 H13         3.0399   -6.1339    3.1340 H         1 <0>         0.4001
     34 H14         6.8868   -2.9887    1.7140 H         1 <0>         0.4117
     35 H15         6.6590   -3.5169    3.2926 H         1 <0>         0.4068
@<TRIPOS>BOND
     1    1    6 ar
     2    1    2 ar
     3    1   23 1
     4    2    3 ar
     5    2   24 1
     6    3    4 ar
     7    3   22 1
     8    4    5 ar
     9    4    8 1
    10    5    6 ar
    11    5   25 1
    12    6    7 1
    13    8    9 2
    14    8   10 am
    15   10   11 1
    16   10   26 1
    17   11   12 1
    18   11   16 1
    19   11   13 1
    20   13   14 1
    21   13   27 1
    22   13   28 1
    23   14   15 1
    24   14   29 1
    25   14   30 1
    26   15   16 1
    27   15   31 1
    28   15   32 1
    29   16   17 1
    30   16   18 1
    31   18   19 2
    32   18   21 1
    33   19   20 1
    34   20   33 1
    35   21   34 1
    36   21   35 1
@<TRIPOS>MOLECULE
ZINC11239748
   39    41     0     0     0
SMALL
USER_CHARGES
4-[[4-amino-5-(trifluoromethyl)-1,2,4-triazol-3-yl]sulfanylmethyl]-6-ethyl-7-hydroxy-chromen-2-one
@<TRIPOS>ATOM
      1 C1          1.3183    7.1052    7.3042 C.3       1 <0>        -0.1477
      2 C2          0.6435    5.9667    8.0720 C.3       1 <0>        -0.0838
      3 C3         -0.8531    6.1012    7.9570 C.ar      1 <0>        -0.1209
      4 C4         -1.5356    5.3346    7.0572 C.ar      1 <0>        -0.0396
      5 C5         -2.9252    5.4596    6.9499 C.ar      1 <0>        -0.1561
      6 C6         -3.6836    4.6500    5.9940 C.2       1 <0>         0.0292
      7 C7         -5.0311    4.8135    5.9414 C.2       1 <0>        -0.2119
      8 C8         -5.6579    5.7481    6.7911 C.2       1 <0>         0.5106
      9 O1         -6.8668    5.8850    6.7334 O.2       1 <0>        -0.4491
     10 O2         -4.9566    6.4909    7.6616 O.3       1 <0>        -0.2661
     11 C9         -3.6150    6.3775    7.7642 C.ar      1 <0>         0.1647
     12 C10        -2.9054    7.1521    8.6690 C.ar      1 <0>        -0.1596
     13 C11        -1.5310    7.0076    8.7695 C.ar      1 <0>         0.1744
     14 O3         -0.8380    7.7632    9.6591 O.3       1 <0>        -0.4849
     15 C12        -2.9888    3.6578    5.0974 C.3       1 <0>        -0.0791
     16 S1         -2.5175    4.4699    3.5499 S.3       1 <0>         0.0438
     17 C13        -1.7490    3.1202    2.7178 C.2       1 <0>         0.1412
     18 N1         -1.6064    1.8988    3.1777 N.2       1 <0>        -0.2646
     19 N2         -1.0053    1.1712    2.3051 N.2       1 <0>        -0.2041
     20 C14        -0.7223    1.8808    1.2496 C.2       1 <0>         0.1192
     21 N3         -1.1890    3.1467    1.4728 N.pl3     1 <0>        -0.2783
     22 N4         -1.1109    4.2158    0.6262 N.3       1 <0>        -0.5805
     23 C15        -0.0169    1.3948    0.0097 C.3       1 <0>         0.5774
     24 F1          0.0021   -0.0041    0.0020 F         1 <0>        -0.1454
     25 F2          1.2956    1.8790   -0.0002 F         1 <0>        -0.1550
     26 F3         -0.6935    1.8582   -1.1237 F         1 <0>        -0.1594
     27 H1          1.0288    7.0571    6.2545 H         1 <0>         0.0565
     28 H2          1.0062    8.0615    7.7238 H         1 <0>         0.0530
     29 H3          2.4008    7.0079    7.3874 H         1 <0>         0.0643
     30 H4          0.9330    6.0148    9.1217 H         1 <0>         0.0848
     31 H5          0.9556    5.0104    7.6524 H         1 <0>         0.0764
     32 H6         -1.0048    4.6334    6.4302 H         1 <0>         0.1424
     33 H7         -5.6209    4.2290    5.2508 H         1 <0>         0.1716
     34 H8         -3.4238    7.8568    9.3023 H         1 <0>         0.1542
     35 H9         -0.5337    8.6094    9.3035 H         1 <0>         0.4004
     36 H10        -3.6627    2.8286    4.8820 H         1 <0>         0.1304
     37 H11        -2.0961    3.2804    5.5962 H         1 <0>         0.1269
     38 H12        -1.9192    4.2599    0.0238 H         1 <0>         0.3793
     39 H13        -0.9957    5.0764    1.1402 H         1 <0>         0.3855
@<TRIPOS>BOND
     1    1    2 1
     2    1   27 1
     3    1   28 1
     4    1   29 1
     5    2    3 1
     6    2   30 1
     7    2   31 1
     8    3   13 ar
     9    3    4 ar
    10    4    5 ar
    11    4   32 1
    12    5   11 ar
    13    5    6 1
    14    6    7 2
    15    6   15 1
    16    7    8 1
    17    7   33 1
    18    8    9 2
    19    8   10 1
    20   10   11 1
    21   11   12 ar
    22   12   13 ar
    23   12   34 1
    24   13   14 1
    25   14   35 1
    26   15   16 1
    27   15   36 1
    28   15   37 1
    29   16   17 1
    30   17   21 1
    31   17   18 2
    32   18   19 1
    33   19   20 2
    34   20   21 1
    35   20   23 1
    36   21   22 1
    37   22   38 1
    38   22   39 1
    39   23   24 1
    40   23   25 1
    41   23   26 1
@<TRIPOS>MOLECULE
ZINC36271854
   55    59     0     0     0
SMALL
USER_CHARGES

@<TRIPOS>ATOM
      1 C1          0.1042    2.1772    0.6078 C.3       1 <0>        -0.1919
      2 C2         -0.2233    0.6864    0.5017 C.3       1 <0>         0.0253
      3 H1          0.2051    0.2852   -0.4168 H         1 <0>         0.1376
      4 C3         -1.7418    0.4987    0.4799 C.3       1 <0>        -0.1405
      5 C4         -2.0646   -0.9946    0.3734 C.3       1 <0>        -0.1378
      6 C5         -1.4050   -1.7339    1.5411 C.3       1 <0>        -0.1413
      7 C6          0.1010   -1.4634    1.5236 C.3       1 <0>         0.0332
      8 H2          0.5225   -1.8183    0.5831 H         1 <0>         0.1324
      9 N1          0.3438   -0.0218    1.6555 N.4       1 <0>        -0.3798
     10 C7          1.7906    0.2253    1.7171 C.3       1 <0>         0.0792
     11 C8          2.3324   -0.2872    3.0267 C.2       1 <0>        -0.1195
     12 C9          1.9732    0.1340    4.2721 C.2       1 <0>         0.1283
     13 N2          2.6799   -0.5655    5.1730 N.2       1 <0>        -0.4536
     14 C10         3.4742   -1.4153    4.5363 C.2       1 <0>         0.2271
     15 N3          3.2721   -1.2659    3.1894 N.pl3     1 <0>        -0.3057
     16 C11         3.9668   -2.0325    2.2948 C.2       1 <0>        -0.0974
     17 C12         4.8621   -2.9537    2.7269 C.2       1 <0>         0.2332
     18 C13         5.0861   -3.1299    4.1070 C.2       1 <0>        -0.1291
     19 C14         4.4063   -2.3651    5.0021 C.2       1 <0>        -0.0329
     20 N4          5.5663   -3.7331    1.7992 N.pl3     1 <0>        -0.8561
     21 C15         0.9726    1.1860    4.5791 C.ar      1 <0>        -0.0331
     22 C16         0.9558    2.3689    3.8399 C.ar      1 <0>        -0.1047
     23 C17         0.0270    3.3477    4.1235 C.ar      1 <0>        -0.0970
     24 C18        -0.8921    3.1562    5.1450 C.ar      1 <0>         0.0902
     25 C19        -0.8806    1.9750    5.8882 C.ar      1 <0>         0.0471
     26 C20         0.0476    0.9893    5.6009 C.ar      1 <0>        -0.0427
     27 O1         -1.8759    2.0664    6.8044 O.3       1 <0>        -0.2295
     28 C21        -2.4997    3.2462    6.6615 C.2       1 <0>         0.6395
     29 O2         -3.4369    3.6308    7.3340 O.2       1 <0>        -0.4633
     30 N5         -1.9264    3.9389    5.6577 N.am      1 <0>        -0.6462
     31 H3         -2.1856    4.8210    5.3485 H         1 <0>         0.4493
     32 C22         0.7644   -2.1999    2.6891 C.3       1 <0>        -0.1951
     33 H4          1.1858    2.3114    0.6222 H         1 <0>         0.0836
     34 H5         -0.3159    2.7033   -0.2494 H         1 <0>         0.1099
     35 H6         -0.3241    2.5788    1.5262 H         1 <0>         0.0848
     36 H7         -2.1713    0.8993    1.3982 H         1 <0>         0.0874
     37 H8         -2.1612    1.0238   -0.3782 H         1 <0>         0.1143
     38 H9         -3.1443   -1.1379    0.4145 H         1 <0>         0.0962
     39 H10        -1.6795   -1.3844   -0.5689 H         1 <0>         0.0824
     40 H11        -1.8275   -1.3796    2.4814 H         1 <0>         0.0872
     41 H12        -1.5837   -2.8045    1.4415 H         1 <0>         0.1117
     42 H13         2.2828   -0.2913    0.8932 H         1 <0>         0.1328
     43 H14         1.9799    1.2959    1.6397 H         1 <0>         0.1499
     44 H15         3.8004   -1.9031    1.2355 H         1 <0>         0.1603
     45 H16         5.7994   -3.8639    4.4517 H         1 <0>         0.1556
     46 H17         4.5694   -2.4932    6.0620 H         1 <0>         0.1677
     47 H18         5.4127   -3.6130    0.8490 H         1 <0>         0.4066
     48 H19         6.2073   -4.3927    2.1073 H         1 <0>         0.4140
     49 H20         1.6714    2.5184    3.0449 H         1 <0>         0.1423
     50 H21         0.0151    4.2633    3.5508 H         1 <0>         0.1501
     51 H22         0.0569    0.0717    6.1704 H         1 <0>         0.1537
     52 H23         0.3379   -3.1991    2.7774 H         1 <0>         0.0951
     53 H24         1.8363   -2.2772    2.5071 H         1 <0>         0.0894
     54 H25         0.5916   -1.6481    3.6130 H         1 <0>         0.0812
     55 H26        -0.0893    0.3155    2.5020 H         1 <0>         0.4189
@<TRIPOS>BOND
     1    1    2 1
     2    1   33 1
     3    1   34 1
     4    1   35 1
     5    2    3 1
     6    2    9 1
     7    2    4 1
     8    4    5 1
     9    4   36 1
    10    4   37 1
    11    5    6 1
    12    5   38 1
    13    5   39 1
    14    6    7 1
    15    6   40 1
    16    6   41 1
    17    7    8 1
    18    7    9 1
    19    7   32 1
    20    9   10 1
    21    9   55 1
    22   10   11 1
    23   10   42 1
    24   10   43 1
    25   11   15 1
    26   11   12 2
    27   12   13 1
    28   12   21 1
    29   13   14 2
    30   14   19 1
    31   14   15 1
    32   15   16 1
    33   16   17 2
    34   16   44 1
    35   17   18 1
    36   17   20 1
    37   18   19 2
    38   18   45 1
    39   19   46 1
    40   20   47 1
    41   20   48 1
    42   21   26 ar
    43   21   22 ar
    44   22   23 ar
    45   22   49 1
    46   23   24 ar
    47   23   50 1
    48   24   30 1
    49   24   25 ar
    50   25   26 ar
    51   25   27 1
    52   26   51 1
    53   27   28 1
    54   28   29 2
    55   28   30 am
    56   30   31 1
    57   32   52 1
    58   32   53 1
    59   32   54 1
@<TRIPOS>MOLECULE
ZINC50170713
   53    55     0     0     0
SMALL
USER_CHARGES

@<TRIPOS>ATOM
      1 C1          0.3783    1.4622   -0.2226 C.3       1 <0>        -0.1427
      2 C2          0.0023   -0.0037    0.0020 C.3       1 <0>        -0.1151
      3 C3          0.2963   -0.8059   -1.2672 C.3       1 <0>        -0.1370
      4 C4          0.8101   -0.5599    1.1462 C.2       1 <0>         0.5203
      5 O1          1.8256   -1.1848    0.9242 O.2       1 <0>        -0.5325
      6 N1          0.4042   -0.3629    2.4162 N.am      1 <0>        -0.6154
      7 C5         -0.8813    0.2903    2.6984 C.3       1 <0>         0.0994
      8 C6         -0.6378    1.4689    3.6462 C.3       1 <0>        -0.1340
      9 C7          0.1019    0.9731    4.8908 C.3       1 <0>        -0.1157
     10 C8          1.4581    0.3930    4.4831 C.3       1 <0>        -0.1101
     11 H1          2.0414    1.1576    3.9701 H         1 <0>         0.1098
     12 C9          1.2358   -0.8028    3.5447 C.3       1 <0>         0.1333
     13 C10         2.1996   -0.0648    5.7126 C.2       1 <0>         0.5238
     14 O2          2.5237   -1.2278    5.8274 O.2       1 <0>        -0.5321
     15 N2          2.5025    0.8183    6.6846 N.am      1 <0>        -0.5184
     16 N3          3.1918    0.3928    7.8277 N.am      1 <0>        -0.5235
     17 C11         3.4948    1.2758    8.7997 C.2       1 <0>         0.5620
     18 O3          3.1699    2.4418    8.6846 O.2       1 <0>        -0.5158
     19 C12         4.2209    0.8275   10.0038 C.ar      1 <0>        -0.1524
     20 C13         4.5940   -0.5010   10.1279 C.ar      1 <0>        -0.0422
     21 C14         5.2836   -0.9209   11.2740 C.ar      1 <0>        -0.0720
     22 C15         5.6782   -2.2621   11.4328 C.ar      1 <0>        -0.0937
     23 C16         6.3465   -2.6392   12.5562 C.ar      1 <0>        -0.1185
     24 C17         6.6474   -1.7156   13.5561 C.ar      1 <0>        -0.0964
     25 C18         6.2821   -0.4100   13.4379 C.ar      1 <0>        -0.1150
     26 C19         5.5904    0.0192   12.2917 C.ar      1 <0>        -0.0136
     27 C20         5.2011    1.3604   12.1417 C.ar      1 <0>        -0.1405
     28 C21         4.5358    1.7557   11.0186 C.ar      1 <0>         0.1645
     29 O4          4.1676    3.0546   10.8783 O.3       1 <0>        -0.4773
     30 H2          1.4547    1.5420   -0.3748 H         1 <0>         0.0627
     31 H3         -0.1421    1.8401   -1.1026 H         1 <0>         0.0711
     32 H4          0.0903    2.0490    0.6497 H         1 <0>         0.0600
     33 H5         -1.0594   -0.0744    0.2387 H         1 <0>         0.0936
     34 H6          1.3579   -0.7353   -1.5039 H         1 <0>         0.0673
     35 H7          0.0284   -1.8503   -1.1072 H         1 <0>         0.0582
     36 H8         -0.2880   -0.4036   -2.0948 H         1 <0>         0.0643
     37 H9         -1.3185    0.6536    1.7683 H         1 <0>         0.0935
     38 H10        -1.5582   -0.4229    3.1686 H         1 <0>         0.0741
     39 H11        -0.0347    2.2234    3.1411 H         1 <0>         0.0738
     40 H12        -1.5935    1.9031    3.9398 H         1 <0>         0.0862
     41 H13         0.2546    1.8052    5.5781 H         1 <0>         0.0752
     42 H14        -0.4905    0.2010    5.3818 H         1 <0>         0.0765
     43 H15         0.7280   -1.6035    4.0825 H         1 <0>         0.0803
     44 H16         2.1959   -1.1611    3.1732 H         1 <0>         0.1018
     45 H17         2.2433    1.7485    6.5928 H         1 <0>         0.4332
     46 H18         3.4510   -0.5374    7.9195 H         1 <0>         0.4303
     47 H19         4.3550   -1.2082    9.3474 H         1 <0>         0.1365
     48 H20         5.4513   -2.9888   10.6667 H         1 <0>         0.1329
     49 H21         6.6481   -3.6694   12.6753 H         1 <0>         0.1288
     50 H22         7.1784   -2.0413   14.4384 H         1 <0>         0.1287
     51 H23         6.5226    0.2935   14.2213 H         1 <0>         0.1329
     52 H24         5.4321    2.0794   12.9138 H         1 <0>         0.1433
     53 H25         3.2922    3.2561   11.2362 H         1 <0>         0.3957
@<TRIPOS>BOND
     1    1    2 1
     2    1   30 1
     3    1   31 1
     4    1   32 1
     5    2    3 1
     6    2    4 1
     7    2   33 1
     8    3   34 1
     9    3   35 1
    10    3   36 1
    11    4    5 2
    12    4    6 am
    13    6   12 1
    14    6    7 1
    15    7    8 1
    16    7   37 1
    17    7   38 1
    18    8    9 1
    19    8   39 1
    20    8   40 1
    21    9   10 1
    22    9   41 1
    23    9   42 1
    24   10   11 1
    25   10   12 1
    26   10   13 1
    27   12   43 1
    28   12   44 1
    29   13   14 2
    30   13   15 am
    31   15   16 1
    32   15   45 1
    33   16   17 am
    34   16   46 1
    35   17   18 2
    36   17   19 1
    37   19   28 ar
    38   19   20 ar
    39   20   21 ar
    40   20   47 1
    41   21   26 ar
    42   21   22 ar
    43   22   23 ar
    44   22   48 1
    45   23   24 ar
    46   23   49 1
    47   24   25 ar
    48   24   50 1
    49   25   26 ar
    50   25   51 1
    51   26   27 ar
    52   27   28 ar
    53   27   52 1
    54   28   29 1
    55   29   53 1
@<TRIPOS>MOLECULE
ZINC59385602
   47    49     0     0     0
SMALL
USER_CHARGES

@<TRIPOS>ATOM
      1 C1          0.6582    1.3664    0.0813 C.3       1 <0>        -0.1355
      2 C2          0.3604   -0.1104    0.0452 C.2       1 <0>         0.2019
      3 C3         -0.9211   -0.5276   -0.0238 C.2       1 <0>        -0.2759
      4 C4         -1.1761   -2.0209   -0.0581 C.3       1 <0>         0.2491
      5 H1         -1.8151   -2.2721    0.7884 H         1 <0>         0.0920
      6 N1          0.0039   -2.9007   -0.0129 N.am      1 <0>        -0.7097
      7 C5          1.2246   -2.3337    0.0554 C.2       1 <0>         0.7063
      8 O1          2.2051   -3.0514    0.0927 O.2       1 <0>        -0.5652
      9 N2          1.3929   -1.0055    0.0773 N.am      1 <0>        -0.6500
     10 C6         -1.9392   -2.3330   -1.3195 C.ar      1 <0>        -0.1535
     11 C7         -1.2907   -2.3162   -2.5405 C.ar      1 <0>        -0.0575
     12 C8         -1.9881   -2.6015   -3.6984 C.ar      1 <0>        -0.1532
     13 C9         -3.3402   -2.9055   -3.6353 C.ar      1 <0>         0.1365
     14 C10        -3.9886   -2.9220   -2.4089 C.ar      1 <0>        -0.2052
     15 C11        -3.2855   -2.6411   -1.2534 C.ar      1 <0>        -0.0576
     16 O2         -4.0286   -3.1860   -4.7729 O.3       1 <0>        -0.3161
     17 C12        -5.4178   -3.4901   -4.6323 C.3       1 <0>         0.0257
     18 C13        -1.9918    0.3991   -0.0626 C.2       1 <0>         0.6177
     19 O3         -2.6566    0.6036    0.9372 O.2       1 <0>        -0.4864
     20 N3         -2.2748    1.0544   -1.2057 N.am      1 <0>        -0.5756
     21 N4         -3.2628    2.0477   -1.2176 N.2       1 <0>        -0.2090
     22 C14        -3.5353    2.6788   -2.3184 C.2       1 <0>         0.0983
     23 C15        -4.5750    3.7241   -2.3309 C.ar      1 <0>        -0.0917
     24 C16        -4.8752    4.4016   -3.5151 C.ar      1 <0>        -0.0626
     25 C17        -5.8492    5.3779   -3.5197 C.ar      1 <0>        -0.1363
     26 C18        -6.5294    5.6886   -2.3550 C.ar      1 <0>        -0.0735
     27 C19        -6.2393    5.0234   -1.1778 C.ar      1 <0>        -0.1625
     28 C20        -5.2699    4.0385   -1.1583 C.ar      1 <0>         0.1369
     29 F1         -4.9907    3.3851   -0.0092 F         1 <0>        -0.1111
     30 H2          1.7363    1.5185    0.1317 H         1 <0>         0.0851
     31 H3          0.2664    1.8382   -0.8198 H         1 <0>         0.0899
     32 H4          0.1872    1.8107    0.9582 H         1 <0>         0.0972
     33 H5         -0.0951   -3.8654   -0.0315 H         1 <0>         0.4335
     34 H6          2.2978   -0.6592    0.1230 H         1 <0>         0.4274
     35 H7         -0.2380   -2.0796   -2.5891 H         1 <0>         0.1234
     36 H8         -1.4812   -2.5876   -4.6519 H         1 <0>         0.1324
     37 H9         -5.0411   -3.1583   -2.3571 H         1 <0>         0.1309
     38 H10        -3.7887   -2.6582   -0.2979 H         1 <0>         0.1281
     39 H11        -5.9316   -2.6415   -4.1808 H         1 <0>         0.0567
     40 H12        -5.8462   -3.6942   -5.6136 H         1 <0>         0.1027
     41 H13        -5.5352   -4.3668   -3.9952 H         1 <0>         0.0574
     42 H14        -1.7945    0.8384   -2.0203 H         1 <0>         0.3856
     43 H15        -3.0005    2.4383   -3.2254 H         1 <0>         0.1255
     44 H16        -4.3454    4.1615   -4.4251 H         1 <0>         0.1379
     45 H17        -6.0817    5.9020   -4.4350 H         1 <0>         0.1349
     46 H18        -7.2905    6.4548   -2.3656 H         1 <0>         0.1356
     47 H19        -6.7739    5.2714   -0.2728 H         1 <0>         0.1395
@<TRIPOS>BOND
     1    1    2 1
     2    1   30 1
     3    1   31 1
     4    1   32 1
     5    2    9 1
     6    2    3 2
     7    3    4 1
     8    3   18 1
     9    4    5 1
    10    4    6 1
    11    4   10 1
    12    6    7 am
    13    6   33 1
    14    7    8 2
    15    7    9 am
    16    9   34 1
    17   10   15 ar
    18   10   11 ar
    19   11   12 ar
    20   11   35 1
    21   12   13 ar
    22   12   36 1
    23   13   14 ar
    24   13   16 1
    25   14   15 ar
    26   14   37 1
    27   15   38 1
    28   16   17 1
    29   17   39 1
    30   17   40 1
    31   17   41 1
    32   18   19 2
    33   18   20 am
    34   20   21 1
    35   20   42 1
    36   21   22 2
    37   22   23 1
    38   22   43 1
    39   23   28 ar
    40   23   24 ar
    41   24   25 ar
    42   24   44 1
    43   25   26 ar
    44   25   45 1
    45   26   27 ar
    46   26   46 1
    47   27   28 ar
    48   27   47 1
    49   28   29 1
@<TRIPOS>MOLECULE
ZINC64870612
   49    52     0     0     0
SMALL
USER_CHARGES

@<TRIPOS>ATOM
      1 C1         -0.0187    1.5258    0.0104 C.3       1 <0>        -0.1524
      2 C2          0.0021   -0.0041    0.0020 C.3       1 <0>        -0.1194
      3 C3          0.7421   -0.5109    1.2415 C.3       1 <0>        -0.1338
      4 C4          0.7628   -2.0407    1.2331 C.3       1 <0>         0.1084
      5 N1          1.4714   -2.5260    2.4200 N.am      1 <0>        -0.5560
      6 C5          2.8063   -2.7231    2.3601 C.2       1 <0>         0.5631
      7 O1          3.4239   -2.5031    1.3360 O.2       1 <0>        -0.4859
      8 C6          3.4950   -3.2114    3.5682 C.ar      1 <0>        -0.1852
      9 C7          4.8691   -3.4388    3.5868 C.ar      1 <0>        -0.0194
     10 C8          5.4664   -3.8955    4.7429 C.ar      1 <0>        -0.1044
     11 C9          4.7081   -4.1282    5.8801 C.ar      1 <0>        -0.0150
     12 C10         3.3454   -3.9068    5.8748 C.ar      1 <0>        -0.1453
     13 C11         2.7273   -3.4472    4.7219 C.ar      1 <0>         0.1952
     14 N2          1.3610   -3.2114    4.6743 N.am      1 <0>        -0.6447
     15 H1          0.8185   -3.3694    5.4627 H         1 <0>         0.4352
     16 C12         0.7824   -2.7610    3.5477 C.2       1 <0>         0.7052
     17 O2         -0.4170   -2.5626    3.5487 O.2       1 <0>        -0.5377
     18 C13         5.3779   -4.6282    7.1341 C.3       1 <0>         0.2396
     19 H2          4.6833   -5.2294    7.7207 H         1 <0>         0.0713
     20 N3          6.5837   -5.4175    6.7950 N.3       1 <0>        -0.6853
     21 C14         7.5908   -5.0995    7.8300 C.3       1 <0>         0.2520
     22 H3          8.4730   -4.6527    7.3716 H         1 <0>         0.1453
     23 N4          6.9405   -4.1283    8.7409 N.3       1 <0>        -0.4731
     24 O3          5.8702   -3.5184    7.9188 O.3       1 <0>        -0.1882
     25 C15         7.9729   -6.3469    8.5843 C.ar      1 <0>        -0.1249
     26 C16         7.9359   -7.5758    7.9517 C.ar      1 <0>        -0.1059
     27 C17         8.2862   -8.7204    8.6429 C.ar      1 <0>        -0.0980
     28 C18         8.6733   -8.6371    9.9674 C.ar      1 <0>        -0.1008
     29 C19         8.7104   -7.4079   10.6008 C.ar      1 <0>        -0.0294
     30 C20         8.3655   -6.2617    9.9065 C.ar      1 <0>        -0.0986
     31 Cl1         9.1964   -7.3025   12.2641 Cl        1 <0>        -0.0571
     32 H4          1.0039    1.9031    0.0027 H         1 <0>         0.0545
     33 H5         -0.5459    1.8868   -0.8726 H         1 <0>         0.0573
     34 H6         -0.5289    1.8773    0.9072 H         1 <0>         0.0543
     35 H7         -1.0205   -0.3814    0.0098 H         1 <0>         0.0664
     36 H8          0.5123   -0.3556   -0.8948 H         1 <0>         0.0663
     37 H9          1.7647   -0.1336    1.2338 H         1 <0>         0.0683
     38 H10         0.2319   -0.1594    2.1383 H         1 <0>         0.0690
     39 H11        -0.2598   -2.4180    1.2409 H         1 <0>         0.1016
     40 H12         1.2730   -2.3923    0.3363 H         1 <0>         0.1008
     41 H13         5.4623   -3.2591    2.7023 H         1 <0>         0.1492
     42 H14         6.5315   -4.0734    4.7624 H         1 <0>         0.1509
     43 H15         2.7628   -4.0912    6.7653 H         1 <0>         0.1405
     44 H16         6.3777   -6.4052    6.7823 H         1 <0>         0.3597
     45 H17         6.5533   -4.5932    9.5484 H         1 <0>         0.3461
     46 H18         7.6329   -7.6415    6.9172 H         1 <0>         0.1382
     47 H19         8.2572   -9.6800    8.1482 H         1 <0>         0.1399
     48 H20         8.9463   -9.5315   10.5076 H         1 <0>         0.1391
     49 H21         8.3985   -5.3012   10.3993 H         1 <0>         0.1428
@<TRIPOS>BOND
     1    1    2 1
     2    1   32 1
     3    1   33 1
     4    1   34 1
     5    2    3 1
     6    2   35 1
     7    2   36 1
     8    3    4 1
     9    3   37 1
    10    3   38 1
    11    4    5 1
    12    4   39 1
    13    4   40 1
    14    5   16 am
    15    5    6 am
    16    6    7 2
    17    6    8 1
    18    8   13 ar
    19    8    9 ar
    20    9   10 ar
    21    9   41 1
    22   10   11 ar
    23   10   42 1
    24   11   12 ar
    25   11   18 1
    26   12   13 ar
    27   12   43 1
    28   13   14 1
    29   14   15 1
    30   14   16 am
    31   16   17 2
    32   18   19 1
    33   18   24 1
    34   18   20 1
    35   20   21 1
    36   20   44 1
    37   21   22 1
    38   21   23 1
    39   21   25 1
    40   23   24 1
    41   23   45 1
    42   25   30 ar
    43   25   26 ar
    44   26   27 ar
    45   26   46 1
    46   27   28 ar
    47   27   47 1
    48   28   29 ar
    49   28   48 1
    50   29   30 ar
    51   29   31 1
    52   30   49 1
@<TRIPOS>MOLECULE
ZINC03521476
   45    47     0     0     0
SMALL
USER_CHARGES
N-carbamoyl-2-[3-(o-tolyl)-4-oxo-quinazolin-2-yl]sulfanyl-propanamide
@<TRIPOS>ATOM
      1 C1         -0.0849    5.3512    0.0307 C.3       1 <0>        -0.1204
      2 C2         -0.0590    3.8445    0.0223 C.ar      1 <0>        -0.0505
      3 C3         -1.2428    3.1326    0.0298 C.ar      1 <0>        -0.1124
      4 C4         -1.2200    1.7503    0.0173 C.ar      1 <0>        -0.0904
      5 C5         -0.0126    1.0758    0.0080 C.ar      1 <0>        -0.1159
      6 C6          1.1742    1.7818    0.0004 C.ar      1 <0>        -0.0846
      7 C7          1.1546    3.1704    0.0076 C.ar      1 <0>         0.0822
      8 N1          2.3568    3.8894    0.0004 N.am      1 <0>        -0.4800
      9 C8          2.9406    4.2328    1.1719 C.2       1 <0>         0.5544
     10 O1          2.4405    3.9285    2.2392 O.2       1 <0>        -0.4899
     11 C9          4.2026    4.9817    1.1085 C.ar      1 <0>        -0.1985
     12 C10         4.8829    5.3776    2.2594 C.ar      1 <0>        -0.0370
     13 C11         6.0514    6.0786    2.1437 C.ar      1 <0>        -0.1390
     14 C12         6.5661    6.3995    0.8941 C.ar      1 <0>        -0.0679
     15 C13         5.9199    6.0245   -0.2500 C.ar      1 <0>        -0.1130
     16 C14         4.7232    5.3068   -0.1650 C.ar      1 <0>         0.1659
     17 N2          4.0502    4.9158   -1.2722 N.2       1 <0>        -0.5292
     18 C15         2.9285    4.2437   -1.1904 C.2       1 <0>         0.3645
     19 S1          2.1188    3.7750   -2.6836 S.3       1 <0>         0.0908
     20 C16         3.2665    4.4740   -3.8962 C.3       1 <0>        -0.1161
     21 H1          4.2699    4.0912   -3.7095 H         1 <0>         0.1338
     22 C17         3.2715    5.9990   -3.7736 C.3       1 <0>        -0.1475
     23 C18         2.8299    4.0830   -5.2845 C.2       1 <0>         0.5394
     24 O2          1.6677    3.8150   -5.5016 O.2       1 <0>        -0.4457
     25 N3          3.7316    4.0313   -6.2850 N.am      1 <0>        -0.6839
     26 C19         3.3411    3.6817   -7.5266 C.2       1 <0>         0.6974
     27 O3          2.1759    3.4130   -7.7442 O.2       1 <0>        -0.5286
     28 N4          4.2428    3.6300   -8.5271 N.am      1 <0>        -0.8546
     29 H2         -0.1005    5.7200   -0.9949 H         1 <0>         0.0816
     30 H3         -0.9762    5.6965    0.5546 H         1 <0>         0.0780
     31 H4          0.8034    5.7271    0.5384 H         1 <0>         0.0577
     32 H5         -2.1872    3.6565    0.0413 H         1 <0>         0.1348
     33 H6         -2.1469    1.1959    0.0191 H         1 <0>         0.1331
     34 H7          0.0021   -0.0041    0.0020 H         1 <0>         0.1344
     35 H8          2.1168    1.2546   -0.0114 H         1 <0>         0.1273
     36 H9          4.4897    5.1328    3.2351 H         1 <0>         0.1379
     37 H10         6.5801    6.3860    3.0339 H         1 <0>         0.1342
     38 H11         7.4904    6.9538    0.8257 H         1 <0>         0.1351
     39 H12         6.3317    6.2808   -1.2149 H         1 <0>         0.1396
     40 H13         3.5873    6.2818   -2.7694 H         1 <0>         0.0998
     41 H14         3.9627    6.4200   -4.5038 H         1 <0>         0.0738
     42 H15         2.2682    6.3818   -3.9603 H         1 <0>         0.0718
     43 H16         4.6615    4.2458   -6.1113 H         1 <0>         0.4135
     44 H17         5.1727    3.8444   -8.3534 H         1 <0>         0.4011
     45 H18         3.9617    3.3784   -9.4207 H         1 <0>         0.4228
@<TRIPOS>BOND
     1    1    2 1
     2    1   29 1
     3    1   30 1
     4    1   31 1
     5    2    7 ar
     6    2    3 ar
     7    3    4 ar
     8    3   32 1
     9    4    5 ar
    10    4   33 1
    11    5    6 ar
    12    5   34 1
    13    6    7 ar
    14    6   35 1
    15    7    8 1
    16    8   18 1
    17    8    9 am
    18    9   10 2
    19    9   11 1
    20   11   16 ar
    21   11   12 ar
    22   12   13 ar
    23   12   36 1
    24   13   14 ar
    25   13   37 1
    26   14   15 ar
    27   14   38 1
    28   15   16 ar
    29   15   39 1
    30   16   17 1
    31   17   18 2
    32   18   19 1
    33   19   20 1
    34   20   21 1
    35   20   22 1
    36   20   23 1
    37   22   40 1
    38   22   41 1
    39   22   42 1
    40   23   24 2
    41   23   25 am
    42   25   26 am
    43   25   43 1
    44   26   27 2
    45   26   28 am
    46   28   44 1
    47   28   45 1
@<TRIPOS>MOLECULE
ZINC14034697
   49    51     0     0     0
SMALL
USER_CHARGES
4-[[2-[(3R)-7-tert-butyl-5-oxo-2,3-dihydrothiazolo[3,2-a]pyrimidin-3-yl]acetyl]amino]benzamide
@<TRIPOS>ATOM
      1 C1          0.8505    6.4494    5.1728 C.3       1 <0>        -0.1492
      2 C2          2.1561    7.2223    4.9754 C.3       1 <0>        -0.0178
      3 C3          3.1104    6.9150    6.1311 C.3       1 <0>        -0.1372
      4 C4          1.8605    8.7231    4.9434 C.3       1 <0>        -0.1377
      5 C5          2.7933    6.8080    3.6741 C.2       1 <0>         0.2174
      6 C6          2.1979    5.8727    2.8778 C.2       1 <0>        -0.2992
      7 C7          2.8086    5.5039    1.6755 C.2       1 <0>         0.5319
      8 O1          2.2838    4.6691    0.9570 O.2       1 <0>        -0.5310
      9 N1          3.9955    6.0794    1.3017 N.am      1 <0>        -0.5434
     10 C8          4.5222    7.0029    2.1521 C.2       1 <0>         0.3851
     11 N2          3.9446    7.3476    3.2840 N.2       1 <0>        -0.5004
     12 S1          6.0407    7.5711    1.4181 S.3       1 <0>        -0.0052
     13 C9          6.0286    6.5603   -0.1039 C.3       1 <0>        -0.0951
     14 C10         4.7215    5.7733    0.0706 C.3       1 <0>         0.1291
     15 H1          4.0715    5.9898   -0.7772 H         1 <0>         0.1260
     16 C11         5.0493    4.2788    0.0591 C.3       1 <0>        -0.1591
     17 C12         5.6651    3.9099   -1.2659 C.2       1 <0>         0.5252
     18 O2          5.7269    4.7316   -2.1557 O.2       1 <0>        -0.5099
     19 N3          6.1474    2.6667   -1.4620 N.am      1 <0>        -0.6697
     20 C13         6.8151    2.3566   -2.6462 C.ar      1 <0>         0.1736
     21 C14         6.7111    1.0793   -3.1877 C.ar      1 <0>        -0.1520
     22 C15         7.3687    0.7700   -4.3570 C.ar      1 <0>        -0.0349
     23 C16         8.1418    1.7406   -4.9997 C.ar      1 <0>        -0.1558
     24 C17         8.2446    3.0226   -4.4528 C.ar      1 <0>        -0.0635
     25 C18         7.5843    3.3252   -3.2833 C.ar      1 <0>        -0.1302
     26 C19         8.8487    1.4125   -6.2532 C.2       1 <0>         0.5645
     27 O3          8.7587    0.2966   -6.7276 O.2       1 <0>        -0.5399
     28 N4          9.5939    2.3497   -6.8719 N.am      1 <0>        -0.8511
     29 H2          1.0611    5.3802    5.1956 H         1 <0>         0.0635
     30 H3          0.3896    6.7491    6.1140 H         1 <0>         0.0706
     31 H4          0.1706    6.6683    4.3494 H         1 <0>         0.0636
     32 H5          4.0405    7.4656    5.9905 H         1 <0>         0.0684
     33 H6          2.6495    7.2147    7.0723 H         1 <0>         0.0671
     34 H7          3.3210    5.8458    6.1539 H         1 <0>         0.0554
     35 H8          1.1806    8.9420    4.1200 H         1 <0>         0.0558
     36 H9          1.3996    9.0228    5.8846 H         1 <0>         0.0672
     37 H10         2.7906    9.2737    4.8027 H         1 <0>         0.0685
     38 H11         1.2628    5.4210    3.1744 H         1 <0>         0.1660
     39 H12         6.8884    5.8911   -0.1361 H         1 <0>         0.1278
     40 H13         5.9912    7.1913   -0.9919 H         1 <0>         0.1410
     41 H14         4.1344    3.7051    0.2069 H         1 <0>         0.1296
     42 H15         5.7522    4.0549    0.8615 H         1 <0>         0.1084
     43 H16         6.0299    1.9876   -0.7793 H         1 <0>         0.4171
     44 H17         6.1135    0.3296   -2.6905 H         1 <0>         0.1358
     45 H18         7.2837   -0.2203   -4.7794 H         1 <0>         0.1429
     46 H19         8.8409    3.7751   -4.9473 H         1 <0>         0.1314
     47 H20         7.6633    4.3157   -2.8601 H         1 <0>         0.1418
     48 H21         9.6656    3.2399   -6.4934 H         1 <0>         0.4009
     49 H22        10.0584    2.1340   -7.6957 H         1 <0>         0.4067
@<TRIPOS>BOND
     1    1    2 1
     2    1   29 1
     3    1   30 1
     4    1   31 1
     5    2    3 1
     6    2    4 1
     7    2    5 1
     8    3   32 1
     9    3   33 1
    10    3   34 1
    11    4   35 1
    12    4   36 1
    13    4   37 1
    14    5   11 1
    15    5    6 2
    16    6    7 1
    17    6   38 1
    18    7    8 2
    19    7    9 am
    20    9   14 1
    21    9   10 1
    22   10   11 2
    23   10   12 1
    24   12   13 1
    25   13   14 1
    26   13   39 1
    27   13   40 1
    28   14   15 1
    29   14   16 1
    30   16   17 1
    31   16   41 1
    32   16   42 1
    33   17   18 2
    34   17   19 am
    35   19   20 1
    36   19   43 1
    37   20   25 ar
    38   20   21 ar
    39   21   22 ar
    40   21   44 1
    41   22   23 ar
    42   22   45 1
    43   23   24 ar
    44   23   26 1
    45   24   25 ar
    46   24   46 1
    47   25   47 1
    48   26   27 2
    49   26   28 am
    50   28   48 1
    51   28   49 1
@<TRIPOS>MOLECULE
ZINC36531397
   51    53     0     0     0
SMALL
USER_CHARGES

@<TRIPOS>ATOM
      1 C1          0.8769    1.2908   -0.1036 C.3       1 <0>         0.0780
      2 N1          0.4288   -0.1034   -0.0631 N.am      1 <0>        -0.5907
      3 C2          0.5572   -0.8784    1.1735 C.3       1 <0>         0.2112
      4 H1          0.1740   -1.8860    1.0122 H         1 <0>         0.1513
      5 C3         -0.2324   -0.2102    2.2694 C.2       1 <0>        -0.0328
      6 C4         -0.9724   -0.8381    3.2008 C.2       1 <0>        -0.1830
      7 C5         -1.5352    0.1658    4.0220 C.2       1 <0>        -0.2107
      8 C6         -1.1054    1.3471    3.5434 C.2       1 <0>        -0.0292
      9 O1         -0.3120    1.1130    2.4853 O.3       1 <0>        -0.1659
     10 C7          2.0085   -0.9508    1.5726 C.2       1 <0>         0.5117
     11 O2          2.8526   -0.4084    0.8912 O.2       1 <0>        -0.5179
     12 N2          2.3686   -1.6183    2.6867 N.am      1 <0>        -0.7186
     13 C8          3.7795   -1.6886    3.0747 C.3       1 <0>         0.1468
     14 C9          4.4536   -2.8484    2.3388 C.3       1 <0>        -0.1300
     15 C10         5.9271   -2.9219    2.7440 C.3       1 <0>        -0.1171
     16 C11         6.0303   -3.1471    4.2538 C.3       1 <0>        -0.1230
     17 C12         5.3562   -1.9874    4.9897 C.3       1 <0>        -0.1159
     18 C13         3.8827   -1.9139    4.5845 C.3       1 <0>        -0.1263
     19 C14        -0.1016   -0.6730   -1.1634 C.2       1 <0>         0.5701
     20 O3         -0.5616   -1.7970   -1.1045 O.2       1 <0>        -0.5119
     21 C15        -0.1240    0.0673   -2.4395 C.ar      1 <0>        -0.1453
     22 C16         0.9981    0.7930   -2.8505 C.ar      1 <0>        -0.0787
     23 C17         0.9736    1.4825   -4.0427 C.ar      1 <0>        -0.1172
     24 C18        -0.1591    1.4618   -4.8401 C.ar      1 <0>        -0.1059
     25 C19        -1.2782    0.7483   -4.4467 C.ar      1 <0>         0.0748
     26 C20        -1.2667    0.0419   -3.2475 C.ar      1 <0>         0.1366
     27 O4         -2.3599   -0.6640   -2.8611 O.3       1 <0>        -0.4751
     28 O5         -2.3866    0.7330   -5.2345 O.3       1 <0>        -0.4892
     29 H2          1.8930    1.3346   -0.4957 H         1 <0>         0.0733
     30 H3          0.2135    1.8671   -0.7485 H         1 <0>         0.0717
     31 H4          0.8577    1.7080    0.9032 H         1 <0>         0.0815
     32 H5         -1.1107   -1.9045    3.3016 H         1 <0>         0.1537
     33 H6         -2.1856    0.0134    4.8707 H         1 <0>         0.1532
     34 H7         -1.3530    2.3189    3.9443 H         1 <0>         0.2060
     35 H8          1.6935   -2.0521    3.2317 H         1 <0>         0.4017
     36 H9          4.2756   -0.7543    2.8120 H         1 <0>         0.0895
     37 H10         3.9575   -3.7827    2.6015 H         1 <0>         0.0649
     38 H11         4.3801   -2.6879    1.2632 H         1 <0>         0.0673
     39 H12         6.4073   -3.7481    2.2197 H         1 <0>         0.0661
     40 H13         6.4232   -1.9875    2.4813 H         1 <0>         0.0645
     41 H14         5.5342   -4.0814    4.5165 H         1 <0>         0.0633
     42 H15         7.0801   -3.1995    4.5424 H         1 <0>         0.0650
     43 H16         5.4297   -2.1478    6.0653 H         1 <0>         0.0685
     44 H17         5.8523   -1.0530    4.7270 H         1 <0>         0.0653
     45 H18         3.4025   -1.0876    5.1087 H         1 <0>         0.0689
     46 H19         3.3866   -2.8482    4.8472 H         1 <0>         0.0692
     47 H20         1.8839    0.8132   -2.2330 H         1 <0>         0.1423
     48 H21         1.8419    2.0425   -4.3573 H         1 <0>         0.1390
     49 H22        -0.1692    2.0054   -5.7733 H         1 <0>         0.1395
     50 H23        -2.9886   -0.1560   -2.3303 H         1 <0>         0.3938
     51 H24        -2.3994    0.0145   -5.8816 H         1 <0>         0.3957
@<TRIPOS>BOND
     1    1    2 1
     2    1   29 1
     3    1   30 1
     4    1   31 1
     5    2    3 1
     6    2   19 am
     7    3    4 1
     8    3    5 1
     9    3   10 1
    10    5    9 1
    11    5    6 2
    12    6    7 1
    13    6   32 1
    14    7    8 2
    15    7   33 1
    16    8    9 1
    17    8   34 1
    18   10   11 2
    19   10   12 am
    20   12   13 1
    21   12   35 1
    22   13   18 1
    23   13   14 1
    24   13   36 1
    25   14   15 1
    26   14   37 1
    27   14   38 1
    28   15   16 1
    29   15   39 1
    30   15   40 1
    31   16   17 1
    32   16   41 1
    33   16   42 1
    34   17   18 1
    35   17   43 1
    36   17   44 1
    37   18   45 1
    38   18   46 1
    39   19   20 2
    40   19   21 1
    41   21   26 ar
    42   21   22 ar
    43   22   23 ar
    44   22   47 1
    45   23   24 ar
    46   23   48 1
    47   24   25 ar
    48   24   49 1
    49   25   26 ar
    50   25   28 1
    51   26   27 1
    52   27   50 1
    53   28   51 1
@<TRIPOS>MOLECULE
ZINC63392211
   48    50     0     0     0
SMALL
USER_CHARGES

@<TRIPOS>ATOM
      1 C1         -0.0418    1.4425   -0.0270 C.3       1 <0>         0.0847
      2 N1         -0.0183   -0.0223   -0.0286 N.am      1 <0>        -0.7363
      3 C2          0.5699   -0.6858   -1.0436 C.2       1 <0>         0.5129
      4 O1          1.0798   -0.0701   -1.9558 O.2       1 <0>        -0.5350
      5 C3          0.5942   -2.1926   -1.0453 C.3       1 <0>        -0.1078
      6 C4          1.3311   -2.6921    0.1990 C.3       1 <0>        -0.1115
      7 C5          1.3556   -4.2219    0.1974 C.3       1 <0>        -0.1263
      8 C6          2.0774   -4.7191   -1.0567 C.3       1 <0>         0.1620
      9 C7          1.3405   -4.2195   -2.3010 C.3       1 <0>        -0.1332
     10 C8          1.3159   -2.6897   -2.2994 C.3       1 <0>        -0.0974
     11 N2          3.4506   -4.2086   -1.0646 N.am      1 <0>        -0.7303
     12 C9          4.4113   -4.8693   -1.7405 C.2       1 <0>         0.7077
     13 O2          4.1383   -5.8891   -2.3439 O.2       1 <0>        -0.5657
     14 N3          5.6746   -4.3997   -1.7477 N.am      1 <0>        -0.6859
     15 C10         6.6907   -5.1335   -2.3719 C.ar      1 <0>         0.1813
     16 C11         6.4159   -5.8677   -3.5168 C.ar      1 <0>        -0.1025
     17 C12         7.4196   -6.5916   -4.1313 C.ar      1 <0>        -0.0809
     18 C13         8.7002   -6.5875   -3.6088 C.ar      1 <0>        -0.1146
     19 C14         8.9836   -5.8584   -2.4685 C.ar      1 <0>        -0.0100
     20 C15         7.9823   -5.1238   -1.8483 C.ar      1 <0>         0.1208
     21 N4          8.2682   -4.3786   -0.6945 N.pl3     1 <0>        -0.3269
     22 C16         7.5728   -4.4081    0.4643 C.2       1 <0>         0.0525
     23 C17         8.1690   -3.5499    1.3246 C.2       1 <0>        -0.2584
     24 C18         9.2648   -2.9766    0.6708 C.2       1 <0>         0.0501
     25 N5          9.3285   -3.4766   -0.5374 N.2       1 <0>        -0.2697
     26 Cl1        10.5925   -5.8565   -1.8166 Cl        1 <0>        -0.0370
     27 H1          0.9799    1.8223   -0.0328 H         1 <0>         0.0599
     28 H2         -0.5668    1.7984   -0.9135 H         1 <0>         0.0601
     29 H3         -0.5560    1.7966    0.8664 H         1 <0>         0.0762
     30 H4         -0.4260   -0.5147    0.7009 H         1 <0>         0.4018
     31 H5         -0.4275   -2.5724   -1.0395 H         1 <0>         0.1013
     32 H6          2.3527   -2.3123    0.1932 H         1 <0>         0.0652
     33 H7          0.8169   -2.3380    1.0925 H         1 <0>         0.0737
     34 H8          1.8806   -4.5778    1.0839 H         1 <0>         0.0770
     35 H9          0.3340   -4.6017    0.2032 H         1 <0>         0.0872
     36 H10         2.0949   -5.8089   -1.0579 H         1 <0>         0.0957
     37 H11         1.8547   -4.5736   -3.1945 H         1 <0>         0.0752
     38 H12         0.3188   -4.5993   -2.2952 H         1 <0>         0.0768
     39 H13         0.7909   -2.3338   -3.1859 H         1 <0>         0.0718
     40 H14         2.3376   -2.3099   -2.3052 H         1 <0>         0.0684
     41 H15         3.6683   -3.3951   -0.5832 H         1 <0>         0.3971
     42 H16         5.8798   -3.5534   -1.3205 H         1 <0>         0.4086
     43 H17         5.4170   -5.8736   -3.9275 H         1 <0>         0.1585
     44 H18         7.2034   -7.1627   -5.0221 H         1 <0>         0.1450
     45 H19         9.4809   -7.1557   -4.0926 H         1 <0>         0.1449
     46 H20         6.6982   -5.0085    0.6672 H         1 <0>         0.1704
     47 H21         7.8541   -3.3438    2.3369 H         1 <0>         0.1534
     48 H22         9.9438   -2.2499    1.0917 H         1 <0>         0.1890
@<TRIPOS>BOND
     1    1    2 1
     2    1   27 1
     3    1   28 1
     4    1   29 1
     5    2    3 am
     6    2   30 1
     7    3    4 2
     8    3    5 1
     9    5   10 1
    10    5    6 1
    11    5   31 1
    12    6    7 1
    13    6   32 1
    14    6   33 1
    15    7    8 1
    16    7   34 1
    17    7   35 1
    18    8    9 1
    19    8   11 1
    20    8   36 1
    21    9   10 1
    22    9   37 1
    23    9   38 1
    24   10   39 1
    25   10   40 1
    26   11   12 am
    27   11   41 1
    28   12   13 2
    29   12   14 am
    30   14   15 1
    31   14   42 1
    32   15   20 ar
    33   15   16 ar
    34   16   17 ar
    35   16   43 1
    36   17   18 ar
    37   17   44 1
    38   18   19 ar
    39   18   45 1
    40   19   20 ar
    41   19   26 1
    42   20   21 1
    43   21   25 1
    44   21   22 1
    45   22   23 2
    46   22   46 1
    47   23   24 1
    48   23   47 1
    49   24   25 2
    50   24   48 1
@<TRIPOS>MOLECULE
ZINC66342784
   50    52     0     0     0
SMALL
USER_CHARGES

@<TRIPOS>ATOM
      1 C1         -0.0184    1.5028    0.0103 C.3       1 <0>        -0.0793
      2 C2          0.0021   -0.0041    0.0020 C.2       1 <0>         0.0005
      3 C3         -1.0805   -0.7968    0.0027 C.2       1 <0>        -0.1943
      4 C4         -0.5714   -2.1760   -0.0071 C.2       1 <0>        -0.2470
      5 C5          0.7883   -2.0655   -0.0128 C.2       1 <0>         0.0981
      6 O1          1.1060   -0.7673   -0.0131 O.3       1 <0>        -0.1696
      7 C6          1.7659   -3.2123   -0.0236 C.3       1 <0>        -0.0888
      8 C7         -1.3643   -3.4184   -0.0102 C.2       1 <0>         0.5990
      9 O2         -0.8036   -4.4975   -0.0182 O.2       1 <0>        -0.5296
     10 N1         -2.7107   -3.3585   -0.0041 N.am      1 <0>        -0.5252
     11 N2         -3.4644   -4.5395   -0.0070 N.am      1 <0>        -0.5284
     12 C8         -4.8108   -4.4796   -0.0009 C.2       1 <0>         0.7148
     13 O3         -5.4649   -5.5045   -0.0034 O.2       1 <0>        -0.5653
     14 N3         -5.4321   -3.2836    0.0080 N.am      1 <0>        -0.7426
     15 C9         -6.8957   -3.2185    0.0146 C.3       1 <0>         0.1472
     16 C10        -7.3411   -1.7548    0.0241 C.3       1 <0>        -0.1160
     17 H1         -6.8892   -1.2058   -0.8020 H         1 <0>         0.0944
     18 C11        -7.0137   -1.0827    1.3837 C.3       1 <0>        -0.1285
     19 C12        -8.0689    0.0394    1.4775 C.3       1 <0>         0.1135
     20 N4         -9.1855   -0.3367    0.5981 N.pl3     1 <0>        -0.6352
     21 C13        -8.8857   -1.6442   -0.0146 C.3       1 <0>         0.1222
     22 C14       -10.3409    0.4197    0.3791 C.ar      1 <0>         0.2273
     23 C15       -11.3293   -0.0519   -0.4748 C.ar      1 <0>        -0.1679
     24 C16       -12.4700    0.6967   -0.6893 C.ar      1 <0>        -0.1018
     25 C17       -12.6285    1.9166   -0.0537 C.ar      1 <0>         0.0366
     26 C18       -11.6442    2.3888    0.7980 C.ar      1 <0>        -0.1023
     27 C19       -10.5042    1.6411    1.0196 C.ar      1 <0>        -0.1674
     28 F1        -13.7448    2.6475   -0.2653 F         1 <0>        -0.1454
     29 H2          1.0042    1.8801    0.0026 H         1 <0>         0.0801
     30 H3         -0.5455    1.8639   -0.8728 H         1 <0>         0.0897
     31 H4         -0.5286    1.8543    0.9071 H         1 <0>         0.0898
     32 H5         -2.1146   -0.4854    0.0096 H         1 <0>         0.1564
     33 H6          1.9969   -3.4832   -1.0538 H         1 <0>         0.0934
     34 H7          2.6813   -2.9143    0.4876 H         1 <0>         0.0825
     35 H8          1.3267   -4.0690    0.4876 H         1 <0>         0.1108
     36 H9         -3.1579   -2.4977    0.0023 H         1 <0>         0.4186
     37 H10        -3.0172   -5.4002   -0.0134 H         1 <0>         0.4454
     38 H11        -4.9103   -2.4660    0.0100 H         1 <0>         0.3909
     39 H12        -7.2853   -3.7111   -0.8763 H         1 <0>         0.0771
     40 H13        -7.2777   -3.7203    0.9036 H         1 <0>         0.0769
     41 H14        -7.1313   -1.7922    2.2028 H         1 <0>         0.0827
     42 H15        -6.0068   -0.6655    1.3751 H         1 <0>         0.0821
     43 H16        -8.4212    0.1321    2.5048 H         1 <0>         0.0648
     44 H17        -7.6369    0.9833    1.1450 H         1 <0>         0.0637
     45 H18        -9.2423   -1.6721   -1.0443 H         1 <0>         0.0778
     46 H19        -9.3383   -2.4477    0.5664 H         1 <0>         0.0699
     47 H20       -11.2060   -1.0032   -0.9711 H         1 <0>         0.1299
     48 H21       -13.2389    0.3305   -1.3536 H         1 <0>         0.1352
     49 H22       -11.7696    3.3408    1.2925 H         1 <0>         0.1347
     50 H23        -9.7388    2.0076    1.6875 H         1 <0>         0.1287
@<TRIPOS>BOND
     1    1    2 1
     2    1   29 1
     3    1   30 1
     4    1   31 1
     5    2    6 1
     6    2    3 2
     7    3    4 1
     8    3   32 1
     9    4    5 2
    10    4    8 1
    11    5    6 1
    12    5    7 1
    13    7   33 1
    14    7   34 1
    15    7   35 1
    16    8    9 2
    17    8   10 am
    18   10   11 1
    19   10   36 1
    20   11   12 am
    21   11   37 1
    22   12   13 2
    23   12   14 am
    24   14   15 1
    25   14   38 1
    26   15   16 1
    27   15   39 1
    28   15   40 1
    29   16   17 1
    30   16   21 1
    31   16   18 1
    32   18   19 1
    33   18   41 1
    34   18   42 1
    35   19   20 1
    36   19   43 1
    37   19   44 1
    38   20   21 1
    39   20   22 1
    40   21   45 1
    41   21   46 1
    42   22   27 ar
    43   22   23 ar
    44   23   24 ar
    45   23   47 1
    46   24   25 ar
    47   24   48 1
    48   25   26 ar
    49   25   28 1
    50   26   27 ar
    51   26   49 1
    52   27   50 1
@<TRIPOS>MOLECULE
ZINC03162613
   50    51     0     0     0
SMALL
USER_CHARGES
N-[1-[(2-hydroxy-5-nitro-phenyl)methyleneaminocarbamoyl]-2-methyl-butyl]benzamide
@<TRIPOS>ATOM
      1 C1         -7.5750   -3.5868   -0.4033 C.3       1 <0>        -0.1419
      2 C2         -7.3945   -2.5283   -1.4932 C.3       1 <0>        -0.1148
      3 C3         -6.1904   -1.6473   -1.1542 C.3       1 <0>        -0.0959
      4 H1         -5.3189   -2.2767   -0.9740 H         1 <0>         0.0825
      5 C4         -5.9044   -0.7026   -2.3232 C.3       1 <0>        -0.1504
      6 C5         -6.4957   -0.8275    0.1011 C.3       1 <0>         0.1367
      7 H2         -6.8046   -1.4955    0.9051 H         1 <0>         0.1134
      8 C6         -5.2605   -0.0734    0.5212 C.2       1 <0>         0.5259
      9 O1         -5.1467    1.1035    0.2498 O.2       1 <0>        -0.4921
     10 N1         -4.2822   -0.7064    1.1986 N.am      1 <0>        -0.5911
     11 N2         -3.0906   -0.0340    1.4998 N.2       1 <0>        -0.1895
     12 C7         -2.1485   -0.6436    2.1521 C.2       1 <0>         0.1282
     13 C8         -0.8949    0.0636    2.4689 C.ar      1 <0>        -0.2033
     14 C9          0.1216   -0.5888    3.1702 C.ar      1 <0>         0.0269
     15 C10         1.2923    0.0786    3.4631 C.ar      1 <0>        -0.1807
     16 C11         1.4647    1.3934    3.0649 C.ar      1 <0>        -0.0129
     17 C12         0.4664    2.0500    2.3703 C.ar      1 <0>        -0.2393
     18 C13        -0.7160    1.3946    2.0678 C.ar      1 <0>         0.3143
     19 N3          2.3692   -0.6136    4.2060 N.pl3     1 <0>         0.0693
     20 O2          2.2204   -1.7704    4.5572 O.2       1 <0>        -0.2275
     21 O3          3.4042   -0.0266    4.4660 O.3       1 <0>        -0.2247
     22 N4         -7.5736    0.1221   -0.1860 N.am      1 <0>        -0.7035
     23 C14        -8.8598   -0.2682   -0.0870 C.2       1 <0>         0.5609
     24 O4         -9.1254   -1.4083    0.2406 O.2       1 <0>        -0.5270
     25 C15        -9.9476    0.6901   -0.3768 C.ar      1 <0>        -0.1335
     26 C16        -9.6461    2.0015   -0.7475 C.ar      1 <0>        -0.0843
     27 C17       -10.6659    2.8894   -1.0217 C.ar      1 <0>        -0.1267
     28 C18       -11.9852    2.4854   -0.9190 C.ar      1 <0>        -0.0950
     29 C19       -12.2910    1.1885   -0.5464 C.ar      1 <0>        -0.1307
     30 C20       -11.2807    0.2891   -0.2751 C.ar      1 <0>        -0.0594
     31 H3         -7.6217   -3.1006    0.5711 H         1 <0>         0.0633
     32 H4         -8.4998   -4.1361   -0.5800 H         1 <0>         0.0509
     33 H5         -6.7322   -4.2777   -0.4247 H         1 <0>         0.0426
     34 H6         -8.2910   -1.9112   -1.5525 H         1 <0>         0.0729
     35 H7         -7.2272   -3.0190   -2.4521 H         1 <0>         0.0572
     36 H8         -5.0466   -0.0750   -2.0816 H         1 <0>         0.0624
     37 H9         -5.6869   -1.2866   -3.2175 H         1 <0>         0.0583
     38 H10        -6.7759   -0.0732   -2.5033 H         1 <0>         0.0573
     39 H11        -4.4032   -1.6275    1.4775 H         1 <0>         0.3706
     40 H12        -2.2832   -1.6692    2.4626 H         1 <0>         0.1029
     41 H13        -0.0091   -1.6142    3.4830 H         1 <0>         0.1289
     42 H14         2.3846    1.9088    3.2983 H         1 <0>         0.1254
     43 H15         0.6084    3.0755    2.0627 H         1 <0>         0.1229
     44 H16        -7.3617    1.0319   -0.4474 H         1 <0>         0.4109
     45 H17        -8.6168    2.3194   -0.8237 H         1 <0>         0.1291
     46 H18       -10.4339    3.9031   -1.3130 H         1 <0>         0.1296
     47 H19       -12.7798    3.1854   -1.1310 H         1 <0>         0.1262
     48 H20       -13.3228    0.8794   -0.4682 H         1 <0>         0.1286
     49 H21       -11.5207   -0.7230    0.0156 H         1 <0>         0.1363
     50 O5         -1.6953    2.0372    1.3805 O.3       1 <0>        -0.6102
@<TRIPOS>BOND
     1    1    2 1
     2    1   31 1
     3    1   32 1
     4    1   33 1
     5    2    3 1
     6    2   34 1
     7    2   35 1
     8    3    4 1
     9    3    5 1
    10    3    6 1
    11    5   36 1
    12    5   37 1
    13    5   38 1
    14    6    7 1
    15    6    8 1
    16    6   22 1
    17    8    9 2
    18    8   10 am
    19   10   11 1
    20   10   39 1
    21   11   12 2
    22   12   13 1
    23   12   40 1
    24   13   18 ar
    25   13   14 ar
    26   14   15 ar
    27   14   41 1
    28   15   16 ar
    29   15   19 1
    30   16   17 ar
    31   16   42 1
    32   17   18 ar
    33   17   43 1
    34   18   50 1
    35   19   20 2
    36   19   21 1
    37   22   23 am
    38   22   44 1
    39   23   24 2
    40   23   25 1
    41   25   30 ar
    42   25   26 ar
    43   26   27 ar
    44   26   45 1
    45   27   28 ar
    46   27   46 1
    47   28   29 ar
    48   28   47 1
    49   29   30 ar
    50   29   48 1
    51   30   49 1
@<TRIPOS>MOLECULE
ZINC13037188
   51    53     0     0     0
SMALL
USER_CHARGES
4-[5-chloro-6-oxo-4-[[2-oxo-2-[(2,4,6-trimethylphenyl)amino]ethyl]amino]pyridazin-1-yl]benzoic acid
@<TRIPOS>ATOM
      1 C1          9.4904   -3.7692    0.3976 C.3       1 <0>        -0.1163
      2 C2          8.1955   -3.0915    0.0300 C.ar      1 <0>        -0.0733
      3 C3          7.2004   -3.8063   -0.6110 C.ar      1 <0>        -0.1212
      4 C4          6.0125   -3.1881   -0.9492 C.ar      1 <0>        -0.0758
      5 C5          5.8182   -1.8472   -0.6449 C.ar      1 <0>         0.1198
      6 C6          6.8218   -1.1306   -0.0063 C.ar      1 <0>        -0.0579
      7 C7          8.0049   -1.7562    0.3348 C.ar      1 <0>        -0.1207
      8 C8          6.6175    0.3264    0.3203 C.3       1 <0>        -0.1122
      9 N1          4.6159   -1.2179   -0.9861 N.am      1 <0>        -0.6724
     10 C9          3.7796   -0.7926   -0.0186 C.2       1 <0>         0.5116
     11 O1          4.1065   -0.8781    1.1463 O.2       1 <0>        -0.5082
     12 C10         2.4383   -0.2108   -0.3841 C.3       1 <0>         0.0905
     13 N2          1.7238    0.1731    0.8359 N.pl3     1 <0>        -0.7001
     14 C11         0.4606    0.7346    0.7509 C.2       1 <0>         0.2479
     15 C12        -0.1444    0.9397   -0.5078 C.2       1 <0>         0.0457
     16 N3         -1.3315    1.4723   -0.5902 N.2       1 <0>        -0.1692
     17 N4         -2.0370    1.8425    0.5593 N.am      1 <0>        -0.3572
     18 C13        -1.4976    1.6648    1.7814 C.2       1 <0>         0.5280
     19 O2         -2.1176    1.9948    2.7806 O.2       1 <0>        -0.5067
     20 C14        -0.2199    1.0990    1.8987 C.2       1 <0>        -0.2215
     21 Cl1         0.4975    0.8600    3.4614 Cl        1 <0>        -0.0216
     22 C15        -3.3088    2.4055    0.4395 C.ar      1 <0>         0.1190
     23 C16        -4.2648    1.7951   -0.3662 C.ar      1 <0>        -0.1166
     24 C17        -5.5220    2.3446   -0.4822 C.ar      1 <0>        -0.0706
     25 C18        -5.8335    3.5234    0.2012 C.ar      1 <0>        -0.1002
     26 C19        -4.8688    4.1369    1.0052 C.ar      1 <0>        -0.0762
     27 C20        -3.6155    3.5786    1.1215 C.ar      1 <0>        -0.1041
     28 C21        -7.1773    4.1189    0.0738 C.2       1 <0>         0.4886
     29 O3         -7.4464    5.1439    0.6681 O.co2     1 <0>        -0.6278
     30 C22         4.9287   -3.9678   -1.6482 C.3       1 <0>        -0.1150
     31 H1         10.1993   -3.6685   -0.4243 H         1 <0>         0.0721
     32 H2          9.9030   -3.3034    1.2925 H         1 <0>         0.0676
     33 H3          9.3054   -4.8260    0.5904 H         1 <0>         0.0675
     34 H4          7.3523   -4.8491   -0.8477 H         1 <0>         0.1260
     35 H5          8.7839   -1.2007    0.8358 H         1 <0>         0.1255
     36 H6          6.2894    0.4242    1.3551 H         1 <0>         0.0788
     37 H7          7.5557    0.8642    0.1842 H         1 <0>         0.0668
     38 H8          5.8597    0.7444   -0.3423 H         1 <0>         0.0601
     39 H9          4.3843   -1.0878   -1.9191 H         1 <0>         0.4113
     40 H10         1.8556   -0.9546   -0.9276 H         1 <0>         0.1084
     41 H11         2.5825    0.6680   -1.0125 H         1 <0>         0.1077
     42 H12         2.1354    0.0341    1.7031 H         1 <0>         0.4229
     43 H13         0.3811    0.6580   -1.4083 H         1 <0>         0.1989
     44 H14        -4.0219    0.8869   -0.8977 H         1 <0>         0.1233
     45 H15        -6.2652    1.8677   -1.1040 H         1 <0>         0.1399
     46 H16        -5.1059    5.0481    1.5344 H         1 <0>         0.1364
     47 H17        -2.8696    4.0522    1.7426 H         1 <0>         0.1233
     48 H18         5.0645   -3.8916   -2.7270 H         1 <0>         0.0735
     49 H19         4.9829   -5.0143   -1.3481 H         1 <0>         0.0700
     50 H20         3.9550   -3.5614   -1.3749 H         1 <0>         0.0657
     51 O4         -8.1061    3.5262   -0.7017 O.co2     1 <0>        -0.7517
@<TRIPOS>BOND
     1    1    2 1
     2    1   31 1
     3    1   32 1
     4    1   33 1
     5    2    7 ar
     6    2    3 ar
     7    3    4 ar
     8    3   34 1
     9    4    5 ar
    10    4   30 1
    11    5    6 ar
    12    5    9 1
    13    6    7 ar
    14    6    8 1
    15    7   35 1
    16    8   36 1
    17    8   37 1
    18    8   38 1
    19    9   10 am
    20    9   39 1
    21   10   11 2
    22   10   12 1
    23   12   13 1
    24   12   40 1
    25   12   41 1
    26   13   14 1
    27   13   42 1
    28   14   20 2
    29   14   15 1
    30   15   16 2
    31   15   43 1
    32   16   17 1
    33   17   18 am
    34   17   22 1
    35   18   19 2
    36   18   20 1
    37   20   21 1
    38   22   27 ar
    39   22   23 ar
    40   23   24 ar
    41   23   44 1
    42   24   25 ar
    43   24   45 1
    44   25   26 ar
    45   25   28 1
    46   26   27 ar
    47   26   46 1
    48   27   47 1
    49   28   29 2
    50   28   51 1
    51   30   48 1
    52   30   49 1
    53   30   50 1
@<TRIPOS>MOLECULE
ZINC06472317
   50    52     0     0     0
SMALL
USER_CHARGES
4-hydroxy-N-(2-hydroxy-4-nitro-phenyl)-2-oxo-1-pentyl-quinoline-3-carboxamide
@<TRIPOS>ATOM
      1 C1         -4.8305   -2.6892   -2.8878 C.3       1 <0>        -0.1525
      2 C2         -3.4985   -1.9365   -2.8911 C.3       1 <0>        -0.1257
      3 C3         -3.0472   -1.6922   -1.4498 C.3       1 <0>        -0.1144
      4 C4         -1.7151   -0.9395   -1.4530 C.3       1 <0>        -0.1361
      5 C5         -1.2638   -0.6952   -0.0117 C.3       1 <0>         0.1017
      6 N1          0.0116    0.0255   -0.0148 N.pl3     1 <0>        -0.5377
      7 C6          0.0037    1.4052   -0.0085 C.ar      1 <0>         0.2064
      8 C7         -1.2037    2.0990   -0.0046 C.ar      1 <0>        -0.1873
      9 C8         -1.2039    3.4768    0.0066 C.ar      1 <0>        -0.0743
     10 C9         -0.0100    4.1848    0.0033 C.ar      1 <0>        -0.1773
     11 C10         1.1864    3.5261   -0.0058 C.ar      1 <0>        -0.0330
     12 C11         1.2105    2.1266   -0.0118 C.ar      1 <0>        -0.1499
     13 C12         2.4856    1.4021   -0.0210 C.2       1 <0>         0.3648
     14 C13         2.4532    0.0056   -0.0268 C.2       1 <0>        -0.4996
     15 C14         1.1587   -0.6746   -0.0234 C.2       1 <0>         0.5757
     16 O1          1.1195   -1.8921   -0.0288 O.3       1 <0>        -0.5761
     17 C15         3.7007   -0.7680   -0.0356 C.2       1 <0>         0.6487
     18 O2          4.0698   -1.3157   -1.0577 O.2       1 <0>        -0.5381
     19 N2          4.4372   -0.8718    1.0883 N.am      1 <0>        -0.6627
     20 C16         5.6832   -1.5107    1.0526 C.ar      1 <0>         0.2113
     21 C17         6.3964   -1.5783   -0.1355 C.ar      1 <0>        -0.1143
     22 C18         7.6255   -2.2093   -0.1682 C.ar      1 <0>        -0.0590
     23 C19         8.1474   -2.7741    0.9810 C.ar      1 <0>        -0.0553
     24 C20         7.4428   -2.7102    2.1687 C.ar      1 <0>        -0.1329
     25 C21         6.2123   -2.0749    2.2113 C.ar      1 <0>         0.1123
     26 O3          5.5206   -2.0064    3.3800 O.3       1 <0>        -0.4979
     27 N3          9.4645   -3.4485    0.9395 N.pl3     1 <0>         0.0417
     28 O4         10.0869   -3.5053   -0.1059 O.2       1 <0>        -0.1735
     29 O5          9.9257   -3.9465    1.9508 O.3       1 <0>        -0.1815
     30 O6          3.6597    2.0673   -0.0244 O.2       1 <0>        -0.6529
     31 H1         -5.1550   -2.8648   -3.9241 H         1 <0>         0.0516
     32 H2         -5.5889   -2.0900   -2.3627 H         1 <0>         0.0525
     33 H3         -4.7052   -3.6539   -2.3743 H         1 <0>         0.0534
     34 H4         -2.7401   -2.5357   -3.4162 H         1 <0>         0.0623
     35 H5         -3.6237   -0.9718   -3.4046 H         1 <0>         0.0608
     36 H6         -3.8056   -1.0930   -0.9247 H         1 <0>         0.0610
     37 H7         -2.9220   -2.6569   -0.9363 H         1 <0>         0.0640
     38 H8         -0.9567   -1.5387   -1.9781 H         1 <0>         0.0714
     39 H9         -1.8403    0.0252   -1.9665 H         1 <0>         0.0647
     40 H10        -2.0222   -0.0960    0.5134 H         1 <0>         0.0798
     41 H11        -1.1386   -1.6599    0.5018 H         1 <0>         0.0913
     42 H12        -2.1384    1.5580   -0.0061 H         1 <0>         0.1263
     43 H13        -2.1423    4.0113    0.0138 H         1 <0>         0.1198
     44 H14        -0.0272    5.2647    0.0075 H         1 <0>         0.1187
     45 H15         2.1114    4.0835   -0.0087 H         1 <0>         0.1327
     46 H16         4.0598   -0.4548    2.0336 H         1 <0>         0.4419
     47 H17         5.9913   -1.1378   -1.0345 H         1 <0>         0.1751
     48 H18         8.1800   -2.2610   -1.0936 H         1 <0>         0.1522
     49 H19         7.8536   -3.1518    3.0646 H         1 <0>         0.1531
     50 H20         5.9396   -2.4523    4.2941 H         1 <0>         0.4369
@<TRIPOS>BOND
     1    1    2 1
     2    1   31 1
     3    1   32 1
     4    1   33 1
     5    2    3 1
     6    2   34 1
     7    2   35 1
     8    3    4 1
     9    3   36 1
    10    3   37 1
    11    4    5 1
    12    4   38 1
    13    4   39 1
    14    5    6 1
    15    5   40 1
    16    5   41 1
    17    6   15 1
    18    6    7 1
    19    7   12 ar
    20    7    8 ar
    21    8    9 ar
    22    8   42 1
    23    9   10 ar
    24    9   43 1
    25   10   11 ar
    26   10   44 1
    27   11   12 ar
    28   11   45 1
    29   12   13 1
    30   13   14 1
    31   13   30 2
    32   14   15 2
    33   14   17 1
    34   15   16 1
    35   17   18 2
    36   17   19 am
    37   19   20 1
    38   19   46 1
    39   20   25 ar
    40   20   21 ar
    41   21   22 ar
    42   21   47 1
    43   22   23 ar
    44   22   48 1
    45   23   24 ar
    46   23   27 1
    47   24   25 ar
    48   24   49 1
    49   25   26 1
    50   26   50 1
    51   27   28 2
    52   27   29 1
@<TRIPOS>MOLECULE
ZINC39722247
   49    52     0     0     0
SMALL
USER_CHARGES

@<TRIPOS>ATOM
      1 C1         -0.0187    1.5258    0.0104 C.3       1 <0>        -0.1495
      2 C2          0.0021   -0.0041    0.0020 C.3       1 <0>        -0.1376
      3 C3          0.7421   -0.5109    1.2415 C.3       1 <0>         0.1113
      4 N1          0.7619   -1.9757    1.2335 N.am      1 <0>        -0.6146
      5 C4         -0.3289   -2.7128    1.8719 C.3       1 <0>         0.3865
      6 H1         -1.2329   -2.1040    1.8570 H         1 <0>         0.1457
      7 N2         -0.5788   -3.9710    1.1596 N.pl3     1 <0>        -0.7361
      8 C5          0.5076   -4.7389    0.7554 C.ar      1 <0>         0.2236
      9 C6          0.4212   -6.1153    0.6314 C.ar      1 <0>        -0.1800
     10 C7          1.5249   -6.8352    0.2156 C.ar      1 <0>        -0.0504
     11 C8          2.7165   -6.1908   -0.0779 C.ar      1 <0>        -0.1697
     12 C9          2.8205   -4.8208    0.0448 C.ar      1 <0>        -0.0219
     13 C10         1.7169   -4.0830    0.4673 C.ar      1 <0>        -0.2090
     14 C11         1.7821   -2.6208    0.6331 C.2       1 <0>         0.5652
     15 O1          2.7500   -2.0016    0.2350 O.2       1 <0>        -0.5239
     16 S1          0.1197   -3.0796    3.5909 S.3       1 <0>        -0.1389
     17 C12         1.6284   -4.0765    3.4475 C.3       1 <0>        -0.0542
     18 C13         2.1137   -4.4540    4.8234 C.2       1 <0>         0.3776
     19 N3          3.2431   -5.2020    4.9256 N.am      1 <0>        -0.6500
     20 H2          3.7118   -5.4768    4.1221 H         1 <0>         0.4117
     21 C14         3.7206   -5.5670    6.1382 C.2       1 <0>         0.5569
     22 O2          4.7313   -6.2364    6.2443 O.2       1 <0>        -0.5205
     23 C15         2.9694   -5.1218    7.3248 C.ar      1 <0>        -0.1977
     24 C16         3.3794   -5.4450    8.6169 C.ar      1 <0>        -0.0661
     25 C17         2.6534   -5.0111    9.6894 C.ar      1 <0>        -0.0901
     26 C18         1.4972   -4.2421    9.5030 C.ar      1 <0>        -0.0900
     27 C19         1.0711   -3.9092    8.2219 C.ar      1 <0>        -0.0634
     28 C20         1.8066   -4.3475    7.1189 C.ar      1 <0>         0.1257
     29 N4          1.4339   -4.0433    5.8503 N.2       1 <0>        -0.4765
     30 C21         0.7247   -3.7818   10.6762 C.2       1 <0>         0.5197
     31 O3          1.0954   -4.0724   11.8044 O.co2     1 <0>        -0.6780
     32 O4         -0.2848   -3.1105   10.5184 O.co2     1 <0>        -0.6757
     33 H3          1.0039    1.9031    0.0027 H         1 <0>         0.0580
     34 H4         -0.5459    1.8868   -0.8726 H         1 <0>         0.0569
     35 H5         -0.5289    1.8773    0.9072 H         1 <0>         0.0587
     36 H6         -1.0205   -0.3814    0.0098 H         1 <0>         0.0614
     37 H7          0.5123   -0.3556   -0.8948 H         1 <0>         0.0636
     38 H8          1.7647   -0.1336    1.2338 H         1 <0>         0.0946
     39 H9          0.2319   -0.1594    2.1383 H         1 <0>         0.0891
     40 H10        -1.4854   -4.2619    0.9743 H         1 <0>         0.4183
     41 H11        -0.5041   -6.6237    0.8588 H         1 <0>         0.1339
     42 H12         1.4586   -7.9088    0.1189 H         1 <0>         0.1308
     43 H13         3.5702   -6.7658   -0.4048 H         1 <0>         0.1303
     44 H14         3.7513   -4.3235   -0.1848 H         1 <0>         0.1371
     45 H15         1.4139   -4.9803    2.8773 H         1 <0>         0.1132
     46 H16         2.3985   -3.4987    2.9365 H         1 <0>         0.1051
     47 H17         4.2691   -6.0376    8.7700 H         1 <0>         0.1323
     48 H18         2.9731   -5.2633   10.6897 H         1 <0>         0.1397
     49 H19         0.1790   -3.3169    8.0812 H         1 <0>         0.1467
@<TRIPOS>BOND
     1    1    2 1
     2    1   33 1
     3    1   34 1
     4    1   35 1
     5    2    3 1
     6    2   36 1
     7    2   37 1
     8    3    4 1
     9    3   38 1
    10    3   39 1
    11    4   14 am
    12    4    5 1
    13    5    6 1
    14    5    7 1
    15    5   16 1
    16    7    8 1
    17    7   40 1
    18    8   13 ar
    19    8    9 ar
    20    9   10 ar
    21    9   41 1
    22   10   11 ar
    23   10   42 1
    24   11   12 ar
    25   11   43 1
    26   12   13 ar
    27   12   44 1
    28   13   14 1
    29   14   15 2
    30   16   17 1
    31   17   18 1
    32   17   45 1
    33   17   46 1
    34   18   29 2
    35   18   19 1
    36   19   20 1
    37   19   21 am
    38   21   22 2
    39   21   23 1
    40   23   28 ar
    41   23   24 ar
    42   24   25 ar
    43   24   47 1
    44   25   26 ar
    45   25   48 1
    46   26   27 ar
    47   26   30 1
    48   27   28 ar
    49   27   49 1
    50   28   29 1
    51   30   31 2
    52   30   32 1
@<TRIPOS>MOLECULE
ZINC62143071
   36    38     0     0     0
SMALL
USER_CHARGES

@<TRIPOS>ATOM
      1 C1          3.4957   -5.1652    0.1712 C.3       1 <0>         0.0343
      2 O1          2.3205   -4.3533    0.1318 O.3       1 <0>        -0.3509
      3 C2          1.1352   -4.9934    0.1118 C.2       1 <0>         0.5076
      4 O2          1.1004   -6.2076    0.1274 O.2       1 <0>        -0.5049
      5 C3         -0.1216   -4.2191    0.0709 C.ar      1 <0>        -0.0747
      6 C4         -0.0839   -2.8229    0.0470 C.ar      1 <0>        -0.1561
      7 C5         -1.2590   -2.1017    0.0084 C.ar      1 <0>        -0.0829
      8 C6         -2.4779   -2.7565   -0.0069 C.ar      1 <0>        -0.0615
      9 C7         -2.5261   -4.1467    0.0166 C.ar      1 <0>         0.2772
     10 C8         -1.3507   -4.8800    0.0502 C.ar      1 <0>        -0.1869
     11 N1         -3.7598   -4.8038    0.0015 N.2       1 <0>        -1.0683
     12 S1         -3.8177   -6.4534   -0.1317 S.o2      1 <0>         2.6042
     13 O3         -3.2303   -6.7807   -1.3836 O.2       1 <0>        -1.0227
     14 O4         -3.3335   -6.9774    1.0972 O.2       1 <0>        -1.0190
     15 C9         -5.5167   -6.9081   -0.2384 C.ar      1 <0>        -0.6044
     16 C10        -6.2325   -7.1753    0.9161 C.ar      1 <0>        -0.0102
     17 C11        -7.5645   -7.5325    0.8426 C.ar      1 <0>        -0.1289
     18 C12        -8.1875   -7.6238   -0.3928 C.ar      1 <0>         0.1243
     19 C13        -7.4656   -7.3543   -1.5571 C.ar      1 <0>         0.0612
     20 C14        -6.1301   -6.9910   -1.4730 C.ar      1 <0>        -0.0003
     21 N2         -8.3444   -7.5249   -2.6242 N.am      1 <0>        -0.6384
     22 H1         -8.1278   -7.4070   -3.5624 H         1 <0>         0.4367
     23 C15        -9.5455   -7.8817   -2.1317 C.2       1 <0>         0.6855
     24 O5        -10.5374   -8.1086   -2.7991 O.2       1 <0>        -0.5622
     25 N3         -9.4826   -7.9498   -0.7885 N.am      1 <0>        -0.6418
     26 H2        -10.2144   -8.1856   -0.1971 H         1 <0>         0.4350
     27 Cl1        -3.9517   -1.8404   -0.0550 Cl        1 <0>        -0.0776
     28 H3          4.3786   -4.5261    0.1839 H         1 <0>         0.0982
     29 H4          3.4810   -5.7823    1.0696 H         1 <0>         0.0578
     30 H5          3.5240   -5.8065   -0.7097 H         1 <0>         0.0577
     31 H6          0.8655   -2.3081    0.0592 H         1 <0>         0.1288
     32 H7         -1.2276   -1.0223   -0.0097 H         1 <0>         0.1262
     33 H8         -1.3857   -5.9594    0.0640 H         1 <0>         0.1221
     34 H9         -5.7470   -7.1045    1.8782 H         1 <0>         0.1501
     35 H10        -8.1196   -7.7405    1.7454 H         1 <0>         0.1376
     36 H11        -5.5696   -6.7775   -2.3712 H         1 <0>         0.1473
@<TRIPOS>BOND
     1    1    2 1
     2    1   28 1
     3    1   29 1
     4    1   30 1
     5    2    3 1
     6    3    4 2
     7    3    5 1
     8    5   10 ar
     9    5    6 ar
    10    6    7 ar
    11    6   31 1
    12    7    8 ar
    13    7   32 1
    14    8    9 ar
    15    8   27 1
    16    9   10 ar
    17    9   11 1
    18   10   33 1
    19   11   12 1
    20   12   13 2
    21   12   14 2
    22   12   15 1
    23   15   20 ar
    24   15   16 ar
    25   16   17 ar
    26   16   34 1
    27   17   18 ar
    28   17   35 1
    29   18   25 1
    30   18   19 ar
    31   19   20 ar
    32   19   21 1
    33   20   36 1
    34   21   22 1
    35   21   23 am
    36   23   24 2
    37   23   25 am
    38   25   26 1
@<TRIPOS>MOLECULE
ZINC06904573
   30    31     0     0     0
SMALL
USER_CHARGES
1,2,3,4,4a,5,6,7,8,8a-decahydroquinoline-2-carboxylic acid
@<TRIPOS>ATOM
      1 C1          5.7561    3.3605    2.4974 C.3       1 <0>        -0.1251
      2 C2          6.0292    2.8495    1.0815 C.3       1 <0>        -0.1161
      3 C3          4.9884    3.4265    0.1195 C.3       1 <0>        -0.1333
      4 C4          3.5907    2.9884    0.5606 C.3       1 <0>         0.0157
      5 H1          3.5337    1.8999    0.5573 H         1 <0>         0.1701
      6 C5          3.3185    3.5063    1.9748 C.3       1 <0>        -0.0937
      7 H2          3.3836    4.5944    1.9826 H         1 <0>         0.0822
      8 C6          4.3563    2.9259    2.9371 C.3       1 <0>        -0.1134
      9 C7          1.9162    3.0732    2.4097 C.3       1 <0>        -0.1320
     10 C8          0.8920    3.6106    1.4060 C.3       1 <0>        -0.1169
     11 C9          1.2350    3.0943    0.0069 C.3       1 <0>        -0.0218
     12 H3          0.5165    3.4890   -0.7115 H         1 <0>         0.1347
     13 C10         1.1765    1.5884   -0.0006 C.2       1 <0>         0.4629
     14 O1          2.1369    0.9483   -0.3581 O.co2     1 <0>        -0.6179
     15 H4          6.4966    2.9468    3.1819 H         1 <0>         0.0732
     16 H5          5.8187    4.4487    2.5091 H         1 <0>         0.0652
     17 H6          5.9698    1.7611    1.0706 H         1 <0>         0.0750
     18 H7          7.0255    3.1618    0.7686 H         1 <0>         0.0769
     19 H8          5.1829    3.0604   -0.8886 H         1 <0>         0.0825
     20 H9          5.0483    4.5148    0.1292 H         1 <0>         0.0749
     21 H10         4.2934    1.8377    2.9265 H         1 <0>         0.0749
     22 H11         4.1620    3.2917    3.9453 H         1 <0>         0.0779
     23 H12         1.8630    1.9848    2.4373 H         1 <0>         0.0856
     24 H13         1.7019    3.4737    3.4006 H         1 <0>         0.0843
     25 H14         0.9178    4.7003    1.4080 H         1 <0>         0.0735
     26 H15        -0.1048    3.2694    1.6854 H         1 <0>         0.1130
     27 N1          2.5895    3.5400   -0.3712 N.4       1 <0>        -0.4897
     28 H16         2.7988    3.2167   -1.3230 H         1 <0>         0.4288
     29 H17         2.6288    4.5656   -0.3418 H         1 <0>         0.4096
     30 O2          0.0575    0.9583    0.3897 O.co2     1 <0>        -0.7012
@<TRIPOS>BOND
     1    1    8 1
     2    1    2 1
     3    1   15 1
     4    1   16 1
     5    2    3 1
     6    2   17 1
     7    2   18 1
     8    3    4 1
     9    3   19 1
    10    3   20 1
    11    4    5 1
    12    4    6 1
    13    4   27 1
    14    6    7 1
    15    6    8 1
    16    6    9 1
    17    8   21 1
    18    8   22 1
    19    9   10 1
    20    9   23 1
    21    9   24 1
    22   10   11 1
    23   10   25 1
    24   10   26 1
    25   11   12 1
    26   11   13 1
    27   11   27 1
    28   13   14 2
    29   13   30 1
    30   27   28 1
    31   27   29 1
@<TRIPOS>MOLECULE
ZINC34482161
   27    29     0     0     0
SMALL
USER_CHARGES

@<TRIPOS>ATOM
      1 C1         -0.0184    1.5028    0.0103 C.3       1 <0>        -0.1215
      2 C2          0.0021   -0.0041    0.0020 C.2       1 <0>        -0.0953
      3 C3          0.0055   -0.6624   -1.1637 C.2       1 <0>        -0.1502
      4 C4          0.0257   -2.1394   -1.1974 C.2       1 <0>         0.4478
      5 O1          0.0281   -2.7236   -2.2638 O.2       1 <0>        -0.4379
      6 C5          0.0433   -2.9017    0.0582 C.2       1 <0>        -0.0244
      7 C6          0.0392   -2.2215    1.2691 C.2       1 <0>        -0.1636
      8 C7          0.0590   -3.1970    2.2851 C.2       1 <0>        -0.1138
      9 C8          0.0750   -4.4118    1.6831 C.2       1 <0>         0.0220
     10 N1          0.0654   -4.2378    0.3398 N.pl3     1 <0>        -0.4655
     11 H1          0.0725   -4.9501   -0.3186 H         1 <0>         0.4272
     12 C9          0.0975   -5.5088    2.7282 C.3       1 <0>         0.1815
     13 H2         -0.8955   -5.9437    2.8419 H         1 <0>         0.0834
     14 C10         0.5294   -4.8094    4.0350 C.3       1 <0>        -0.1465
     15 C11         0.0688   -3.3561    3.7899 C.3       1 <0>        -0.0552
     16 O2          1.0423   -6.5184    2.3676 O.3       1 <0>        -0.5648
     17 C12         0.0243   -0.7445    1.2804 C.2       1 <0>         0.4411
     18 O3          0.0256   -0.1420    2.3350 O.2       1 <0>        -0.4223
     19 H3          1.0042    1.8801    0.0026 H         1 <0>         0.0879
     20 H4         -0.5455    1.8639   -0.8728 H         1 <0>         0.0818
     21 H5         -0.5286    1.8543    0.9071 H         1 <0>         0.0840
     22 H6         -0.0070   -0.1075   -2.0901 H         1 <0>         0.1623
     23 H7          0.0165   -5.2403    4.8949 H         1 <0>         0.0916
     24 H8          1.6106   -4.8585    4.1637 H         1 <0>         0.0901
     25 H9          0.7715   -2.6550    4.2403 H         1 <0>         0.0847
     26 H10        -0.9320   -3.2026    4.1936 H         1 <0>         0.0869
     27 H11         1.1000   -7.2472    3.0007 H         1 <0>         0.3888
@<TRIPOS>BOND
     1    1    2 1
     2    1   19 1
     3    1   20 1
     4    1   21 1
     5    2   17 1
     6    2    3 2
     7    3    4 1
     8    3   22 1
     9    4    5 2
    10    4    6 1
    11    6   10 1
    12    6    7 2
    13    7    8 1
    14    7   17 1
    15    8   15 1
    16    8    9 2
    17    9   10 1
    18    9   12 1
    19   10   11 1
    20   12   13 1
    21   12   14 1
    22   12   16 1
    23   14   15 1
    24   14   23 1
    25   14   24 1
    26   15   25 1
    27   15   26 1
    28   16   27 1
    29   17   18 2
@<TRIPOS>MOLECULE
ZINC42196981
   30    31     0     0     0
SMALL
USER_CHARGES

@<TRIPOS>ATOM
      1 C1         -0.0168    1.3849    0.0097 C.ar      1 <0>        -0.2158
      2 C2          1.1707    2.0901    0.0021 C.ar      1 <0>         0.0075
      3 C3          2.3774    1.4150   -0.0135 C.ar      1 <0>        -0.5226
      4 C4          2.3998    0.0323   -0.0211 C.ar      1 <0>        -0.0060
      5 C5          1.2161   -0.6790   -0.0137 C.ar      1 <0>        -0.2145
      6 C6          0.0021   -0.0041    0.0020 C.ar      1 <0>         0.2489
      7 N1         -1.1970   -0.7204    0.0101 N.pl3     1 <0>        -0.8723
      8 S1          3.8900    2.3186   -0.0243 S.o       1 <0>         1.3446
      9 O1          4.8222    1.4216   -0.6121 O.2       1 <0>        -0.8565
     10 C7          4.2846    2.5349    1.7331 C.3       1 <0>        -0.4716
     11 C8          5.5935    3.3152    1.8696 C.3       1 <0>         0.1014
     12 H1          6.3797    2.8212    1.2987 H         1 <0>         0.0851
     13 C9          6.0002    3.3997    3.3565 C.3       1 <0>        -0.1476
     14 C10         6.5507    4.8478    3.4659 C.3       1 <0>        -0.1589
     15 C11         5.6313    5.5885    2.4624 C.3       1 <0>         0.0496
     16 O2          5.4136    4.6534    1.3915 O.3       1 <0>        -0.3758
     17 H2         -0.9589    1.9127    0.0260 H         1 <0>         0.1267
     18 H3          1.1567    3.1700    0.0080 H         1 <0>         0.1366
     19 H4          3.3440   -0.4918   -0.0333 H         1 <0>         0.1242
     20 H5          1.2342   -1.7588   -0.0200 H         1 <0>         0.1216
     21 H6         -2.0441   -0.2480    0.0210 H         1 <0>         0.4013
     22 H7         -1.1825   -1.6903    0.0047 H         1 <0>         0.4007
     23 H8          3.4805    3.0859    2.2209 H         1 <0>         0.1194
     24 H9          4.3932    1.5578    2.2039 H         1 <0>         0.0946
     25 H10         5.1338    3.2641    4.0040 H         1 <0>         0.0803
     26 H11         6.7769    2.6709    3.5883 H         1 <0>         0.0816
     27 H12         6.4268    5.2399    4.4754 H         1 <0>         0.0845
     28 H13         7.5936    4.8963    3.1528 H         1 <0>         0.0797
     29 H14         4.6850    5.8483    2.9370 H         1 <0>         0.0642
     30 H15         6.1256    6.4844    2.0867 H         1 <0>         0.0892
@<TRIPOS>BOND
     1    1    6 ar
     2    1    2 ar
     3    1   17 1
     4    2    3 ar
     5    2   18 1
     6    3    4 ar
     7    3    8 1
     8    4    5 ar
     9    4   19 1
    10    5    6 ar
    11    5   20 1
    12    6    7 1
    13    7   21 1
    14    7   22 1
    15    8    9 2
    16    8   10 1
    17   10   11 1
    18   10   23 1
    19   10   24 1
    20   11   12 1
    21   11   16 1
    22   11   13 1
    23   13   14 1
    24   13   25 1
    25   13   26 1
    26   14   15 1
    27   14   27 1
    28   14   28 1
    29   15   16 1
    30   15   29 1
    31   15   30 1
@<TRIPOS>MOLECULE
ZINC49807165
   29    30     0     0     0
SMALL
USER_CHARGES

@<TRIPOS>ATOM
      1 C1         -0.0187    1.5258    0.0104 C.3       1 <0>        -0.1480
      2 C2          0.0021   -0.0041    0.0020 C.3       1 <0>        -0.0960
      3 H1         -1.0189   -0.3856    0.0097 H         1 <0>         0.0761
      4 C3          0.7320   -0.5047   -1.2505 C.3       1 <0>        -0.1112
      5 C4          0.5452   -2.0175   -1.3398 C.3       1 <0>        -0.0921
      6 C5          0.9096   -2.6778   -0.0347 C.2       1 <0>         0.1619
      7 C6          0.9930   -1.9995    1.1273 C.2       1 <0>        -0.1819
      8 C7          1.3265   -2.6848    2.3125 C.2       1 <0>         0.0082
      9 C8          1.5681   -4.0234    2.2782 C.2       1 <0>        -0.2238
     10 C9          1.4808   -4.6996    1.0491 C.2       1 <0>         0.5276
     11 O1          1.6971   -5.8996    0.9936 O.2       1 <0>        -0.5535
     12 N1          1.1590   -4.0207   -0.0637 N.am      1 <0>        -0.6093
     13 H2          1.1022   -4.4949   -0.9080 H         1 <0>         0.4144
     14 C10         1.9242   -4.7692    3.5383 C.3       1 <0>         0.1439
     15 O2          1.9467   -3.8594    4.6401 O.3       1 <0>        -0.5744
     16 C11         0.7525   -0.5158    1.2296 C.3       1 <0>        -0.0573
     17 H3          1.0039    1.9031    0.0027 H         1 <0>         0.0572
     18 H4         -0.5459    1.8868   -0.8726 H         1 <0>         0.0578
     19 H5         -0.5289    1.8773    0.9072 H         1 <0>         0.0581
     20 H6          0.3106   -0.0293   -2.1362 H         1 <0>         0.0787
     21 H7          1.7937   -0.2691   -1.1761 H         1 <0>         0.0725
     22 H8         -0.4962   -2.2374   -1.5748 H         1 <0>         0.0933
     23 H9          1.1821   -2.4117   -2.1317 H         1 <0>         0.0870
     24 H10         1.3906   -2.1478    3.2474 H         1 <0>         0.1449
     25 H11         1.1816   -5.5454    3.7232 H         1 <0>         0.0619
     26 H12         2.9071   -5.2264    3.4245 H         1 <0>         0.0619
     27 H13         2.1694   -4.2716    5.4860 H         1 <0>         0.3877
     28 H14         1.7108   -0.0018    1.3046 H         1 <0>         0.0769
     29 H15         0.1636   -0.3077    2.1229 H         1 <0>         0.0774
@<TRIPOS>BOND
     1    1    2 1
     2    1   17 1
     3    1   18 1
     4    1   19 1
     5    2    3 1
     6    2   16 1
     7    2    4 1
     8    4    5 1
     9    4   20 1
    10    4   21 1
    11    5    6 1
    12    5   22 1
    13    5   23 1
    14    6   12 1
    15    6    7 2
    16    7    8 1
    17    7   16 1
    18    8    9 2
    19    8   24 1
    20    9   10 1
    21    9   14 1
    22   10   11 2
    23   10   12 am
    24   12   13 1
    25   14   15 1
    26   14   25 1
    27   14   26 1
    28   15   27 1
    29   16   28 1
    30   16   29 1
@<TRIPOS>MOLECULE
ZINC42041223
   21    22     0     0     0
SMALL
USER_CHARGES

@<TRIPOS>ATOM
      1 C1         -0.0184    1.5028    0.0103 C.3       1 <0>        -0.1157
      2 C2          0.0021   -0.0041    0.0020 C.ar      1 <0>        -0.0995
      3 C3          0.0057   -0.6859   -1.1975 C.ar      1 <0>        -0.0471
      4 C4          0.0239   -2.0690   -1.2156 C.ar      1 <0>        -0.1129
      5 C5          0.0391   -2.7731   -0.0229 C.ar      1 <0>        -0.0205
      6 C6          0.0360   -2.0946    1.1746 C.ar      1 <0>        -0.1346
      7 C7          0.0230   -0.7056    1.2056 C.ar      1 <0>         0.1692
      8 N1          0.0294   -0.2525    2.5257 N.am      1 <0>        -0.6539
      9 C8          0.0515   -1.2636    3.4103 C.2       1 <0>         0.5055
     10 O1          0.0610   -1.1632    4.6190 O.2       1 <0>        -0.4855
     11 C9          0.0491   -2.5519    2.6150 C.3       1 <0>         0.1231
     12 H1          0.9537   -3.1220    2.8265 H         1 <0>         0.1144
     13 O2         -1.1139   -3.3305    2.9037 O.3       1 <0>        -0.5279
     14 Br1         0.0275   -2.9958   -2.8640 Br        1 <0>        -0.0355
     15 H2          1.0042    1.8801    0.0026 H         1 <0>         0.0777
     16 H3         -0.5455    1.8639   -0.8728 H         1 <0>         0.0785
     17 H4         -0.5286    1.8543    0.9071 H         1 <0>         0.0652
     18 H5         -0.0062   -0.1367   -2.1274 H         1 <0>         0.1451
     19 H6          0.0530   -3.8530   -0.0325 H         1 <0>         0.1433
     20 H7          0.0193    0.6846    2.7757 H         1 <0>         0.4171
     21 H8         -1.1569   -3.6502    3.8153 H         1 <0>         0.3940
@<TRIPOS>BOND
     1    1    2 1
     2    1   15 1
     3    1   16 1
     4    1   17 1
     5    2    7 ar
     6    2    3 ar
     7    3    4 ar
     8    3   18 1
     9    4    5 ar
    10    4   14 1
    11    5    6 ar
    12    5   19 1
    13    6   11 1
    14    6    7 ar
    15    7    8 1
    16    8    9 am
    17    8   20 1
    18    9   10 2
    19    9   11 1
    20   11   12 1
    21   11   13 1
    22   13   21 1
@<TRIPOS>MOLECULE
ZINC01736295
   50    52     0     0     0
SMALL
USER_CHARGES
2-(2-amino-4-methyl-pentanoyl)aminoadamantane-2-carboxylic acid
@<TRIPOS>ATOM
      1 C1          3.2867   -6.5828    0.2517 C.3       1 <0>        -0.1633
      2 C2          4.5599   -6.0592    0.9192 C.3       1 <0>        -0.1008
      3 C3          5.7832   -6.6800    0.2417 C.3       1 <0>        -0.1531
      4 C4          4.6187   -4.5365    0.7817 C.3       1 <0>        -0.1376
      5 C5          3.4637   -3.9088    1.5647 C.3       1 <0>         0.0106
      6 H1          2.5205   -4.3395    1.2286 H         1 <0>         0.1551
      7 C6          3.4482   -2.4203    1.3300 C.2       1 <0>         0.4990
      8 O1          3.9212   -1.6709    2.1580 O.2       1 <0>        -0.5154
      9 N1          2.9087   -1.9218    0.2000 N.am      1 <0>        -0.6640
     10 C7          2.8936   -0.4747   -0.0281 C.3       1 <0>         0.1454
     11 C8          2.2301   -0.1776   -1.3744 C.3       1 <0>        -0.0772
     12 C9          0.7948   -0.7071   -1.3635 C.3       1 <0>        -0.1068
     13 C10         0.0071   -0.0226   -0.2446 C.3       1 <0>        -0.0848
     14 C11        -0.0087    1.4886   -0.4829 C.3       1 <0>        -0.1082
     15 C12         1.4267    2.0182   -0.4937 C.3       1 <0>        -0.0843
     16 C13         2.2144    1.3337   -1.6126 C.3       1 <0>        -0.1045
     17 C14         2.0901    1.7210    0.8525 C.3       1 <0>        -0.1321
     18 C15         2.1059    0.2098    1.0908 C.3       1 <0>        -0.0724
     19 C16         0.6705   -0.3198    1.1016 C.3       1 <0>        -0.1054
     20 C17         4.3074    0.0469   -0.0388 C.2       1 <0>         0.4760
     21 O2          4.5656    1.1033    0.4876 O.co2     1 <0>        -0.6070
     22 H2          2.4152   -6.1405    0.7344 H         1 <0>         0.0520
     23 H3          3.2929   -6.3133   -0.8044 H         1 <0>         0.0710
     24 H4          3.2448   -7.6676    0.3497 H         1 <0>         0.0686
     25 H5          4.5536   -6.3287    1.9754 H         1 <0>         0.0627
     26 H6          6.6903   -6.3070    0.7173 H         1 <0>         0.0627
     27 H7          5.7414   -7.7648    0.3397 H         1 <0>         0.0648
     28 H8          5.7895   -6.4105   -0.8144 H         1 <0>         0.0673
     29 H9          4.5355   -4.2632   -0.2701 H         1 <0>         0.1208
     30 H10         5.5665   -4.1722    1.1779 H         1 <0>         0.1006
     31 H11         2.5304   -2.5212   -0.4622 H         1 <0>         0.3953
     32 H12         2.7913   -0.6652   -2.1715 H         1 <0>         0.0767
     33 H13         0.8060   -1.7838   -1.1938 H         1 <0>         0.0517
     34 H14         0.3221   -0.4954   -2.3226 H         1 <0>         0.0661
     35 H15        -1.0155   -0.3999   -0.2369 H         1 <0>         0.0640
     36 H16        -0.4813    1.7003   -1.4420 H         1 <0>         0.0583
     37 H17        -0.5699    1.9763    0.3142 H         1 <0>         0.0589
     38 H18         1.4155    3.0948   -0.6635 H         1 <0>         0.0677
     39 H19         3.2370    1.7110   -1.6204 H         1 <0>         0.0747
     40 H20         1.7417    1.5454   -2.5717 H         1 <0>         0.0612
     41 H21         3.1127    2.0983    0.8448 H         1 <0>         0.1246
     42 H22         1.5290    2.2087    1.6496 H         1 <0>         0.0466
     43 H23         2.5785   -0.0020    2.0499 H         1 <0>         0.0804
     44 H24         0.1093    0.1678    1.8987 H         1 <0>         0.0584
     45 H25         0.6817   -1.3965    1.2714 H         1 <0>         0.0444
     46 H26         4.5092   -3.7872    3.3340 H         1 <0>         0.4442
     47 H27         2.8582   -3.8281    3.5307 H         1 <0>         0.4385
     48 O3          5.2799   -0.6622   -0.6332 O.co2     1 <0>        -0.7589
     49 N2          3.6417   -4.2020    2.9977 N.4       1 <0>        -0.6284
     50 H28         3.6828   -5.2192    3.1315 H         1 <0>         0.4361
@<TRIPOS>BOND
     1    1    2 1
     2    1   22 1
     3    1   23 1
     4    1   24 1
     5    2    3 1
     6    2    4 1
     7    2   25 1
     8    3   26 1
     9    3   27 1
    10    3   28 1
    11    4    5 1
    12    4   29 1
    13    4   30 1
    14    5    6 1
    15    5    7 1
    16    5   49 1
    17    7    8 2
    18    7    9 am
    19    9   10 1
    20    9   31 1
    21   10   18 1
    22   10   11 1
    23   10   20 1
    24   11   16 1
    25   11   12 1
    26   11   32 1
    27   12   13 1
    28   12   33 1
    29   12   34 1
    30   13   19 1
    31   13   14 1
    32   13   35 1
    33   14   15 1
    34   14   36 1
    35   14   37 1
    36   15   16 1
    37   15   17 1
    38   15   38 1
    39   16   39 1
    40   16   40 1
    41   17   18 1
    42   17   41 1
    43   17   42 1
    44   18   19 1
    45   18   43 1
    46   19   44 1
    47   19   45 1
    48   20   21 2
    49   20   48 1
    50   46   49 1
    51   47   49 1
    52   49   50 1
@<TRIPOS>MOLECULE
ZINC35187003
   38    38     0     0     0
SMALL
USER_CHARGES

@<TRIPOS>ATOM
      1 C1         -0.2740    1.5057   -0.7357 C.3       1 <0>        -0.1356
      2 C2         -0.1716   -0.0193   -0.6675 C.3       1 <0>        -0.1008
      3 C3          1.1386   -0.4123    0.0179 C.3       1 <0>        -0.1596
      4 C4         -1.3520   -0.5745    0.1320 C.3       1 <0>         0.1507
      5 H1         -1.3631   -0.1233    1.1242 H         1 <0>         0.1127
      6 C5         -1.2122   -2.0694    0.2615 C.2       1 <0>         0.5199
      7 O1         -1.6537   -2.7969   -0.6026 O.2       1 <0>        -0.5305
      8 N1         -0.5965   -2.5980    1.3377 N.am      1 <0>        -0.6030
      9 C6          0.0374   -1.7296    2.3390 C.3       1 <0>         0.0934
     10 C7         -0.5158   -2.0866    3.7223 C.3       1 <0>        -0.1364
     11 C8         -0.3206   -3.5834    3.9746 C.3       1 <0>        -0.1542
     12 C9         -1.0930   -4.3845    2.9239 C.3       1 <0>         0.0925
     13 H2         -2.1501   -4.1226    2.9715 H         1 <0>         0.0586
     14 C10        -0.5517   -4.0533    1.5348 C.3       1 <0>         0.1182
     15 O2         -0.9359   -5.7817    3.1790 O.3       1 <0>        -0.5628
     16 N2         -2.6032   -0.2593   -0.5618 N.am      1 <0>        -0.7317
     17 C11        -3.1995    0.9336   -0.3674 C.2       1 <0>         0.7098
     18 O3         -2.6990    1.7482    0.3838 O.2       1 <0>        -0.5871
     19 N3         -4.3505    1.2236   -1.0057 N.am      1 <0>        -0.8652
     20 H3          0.5669    1.9013   -1.3053 H         1 <0>         0.0521
     21 H4         -1.2075    1.7857   -1.2241 H         1 <0>         0.0581
     22 H5         -0.2546    1.9167    0.2736 H         1 <0>         0.0646
     23 H6         -0.1910   -0.4303   -1.6769 H         1 <0>         0.0793
     24 H7          1.1849    0.0485    1.0047 H         1 <0>         0.0641
     25 H8          1.1840   -1.4965    0.1208 H         1 <0>         0.0588
     26 H9          1.9805   -0.0688   -0.5833 H         1 <0>         0.0662
     27 H10         1.1163   -1.8839    2.3260 H         1 <0>         0.0813
     28 H11        -0.1874   -0.6871    2.1135 H         1 <0>         0.0969
     29 H12         0.0154   -1.5168    4.4847 H         1 <0>         0.0854
     30 H13        -1.5782   -1.8464    3.7623 H         1 <0>         0.0704
     31 H14         0.7397   -3.8273    3.9099 H         1 <0>         0.0760
     32 H15        -0.6912   -3.8355    4.9682 H         1 <0>         0.0715
     33 H16        -1.1650   -4.5435    0.7788 H         1 <0>         0.1005
     34 H17         0.4782   -4.4013    1.4548 H         1 <0>         0.0793
     35 H18        -1.2595   -6.0621    4.0460 H         1 <0>         0.3845
     36 H19        -3.0024   -0.9092   -1.1611 H         1 <0>         0.4059
     37 H20        -4.7498    0.5737   -1.6050 H         1 <0>         0.3986
     38 H21        -4.7797    2.0821   -0.8658 H         1 <0>         0.4174
@<TRIPOS>BOND
     1    1    2 1
     2    1   20 1
     3    1   21 1
     4    1   22 1
     5    2    3 1
     6    2    4 1
     7    2   23 1
     8    3   24 1
     9    3   25 1
    10    3   26 1
    11    4    5 1
    12    4    6 1
    13    4   16 1
    14    6    7 2
    15    6    8 am
    16    8   14 1
    17    8    9 1
    18    9   10 1
    19    9   27 1
    20    9   28 1
    21   10   11 1
    22   10   29 1
    23   10   30 1
    24   11   12 1
    25   11   31 1
    26   11   32 1
    27   12   13 1
    28   12   14 1
    29   12   15 1
    30   14   33 1
    31   14   34 1
    32   15   35 1
    33   16   17 am
    34   16   36 1
    35   17   18 2
    36   17   19 am
    37   19   37 1
    38   19   38 1
@<TRIPOS>MOLECULE
ZINC40303974
   37    38     0     0     0
SMALL
USER_CHARGES

@<TRIPOS>ATOM
      1 C1         -2.0347    0.2495    0.7737 C.3       1 <0>        -0.1449
      2 C2         -1.3827   -1.0957    0.4478 C.3       1 <0>         0.0718
      3 H1         -2.1552   -1.8254    0.2052 H         1 <0>         0.0636
      4 C3         -0.4398   -0.9310   -0.7496 C.3       1 <0>         0.0433
      5 N1          0.3118   -2.1840   -0.9242 N.am      1 <0>        -0.6062
      6 C4          0.9864   -2.7556    0.2521 C.3       1 <0>         0.1094
      7 H2          1.8225   -2.1190    0.5412 H         1 <0>         0.0816
      8 C5         -0.0260   -2.8314    1.4007 C.3       1 <0>         0.0522
      9 O1         -0.6347   -1.5501    1.5782 O.3       1 <0>        -0.3770
     10 C6          1.4977   -4.1592   -0.0786 C.3       1 <0>        -0.1402
     11 C7          0.3807   -2.7900   -2.1261 C.2       1 <0>         0.5628
     12 O2          1.0709   -3.7803   -2.2688 O.2       1 <0>        -0.5226
     13 C8         -0.3833   -2.2500   -3.2713 C.ar      1 <0>        -0.0375
     14 C9         -0.5740   -0.8739   -3.3979 C.ar      1 <0>        -0.2438
     15 C10        -1.2908   -0.3707   -4.4736 C.ar      1 <0>         0.2576
     16 C11        -1.8183   -1.2351   -5.4238 C.ar      1 <0>        -0.2573
     17 C12        -1.6308   -2.6055   -5.3006 C.ar      1 <0>         0.2580
     18 C13        -0.9101   -3.1150   -4.2304 C.ar      1 <0>        -0.1951
     19 N2         -2.1636   -3.4715   -6.2586 N.pl3     1 <0>        -0.8734
     20 N3         -1.4827    1.0072   -4.6009 N.pl3     1 <0>        -0.8747
     21 H3         -1.2616    0.9787    1.0162 H         1 <0>         0.0666
     22 H4         -2.6033    0.5962   -0.0892 H         1 <0>         0.0747
     23 H5         -2.7036    0.1320    1.6263 H         1 <0>         0.0688
     24 H6         -1.0205   -0.7230   -1.6482 H         1 <0>         0.1323
     25 H7          0.2528   -0.1107   -0.5613 H         1 <0>         0.0784
     26 H8         -0.7931   -3.5681    1.1619 H         1 <0>         0.0565
     27 H9          0.4855   -3.1218    2.3183 H         1 <0>         0.1078
     28 H10         2.3084   -4.0890   -0.8039 H         1 <0>         0.0832
     29 H11         1.8639   -4.6360    0.8306 H         1 <0>         0.0514
     30 H12         0.6852   -4.7524   -0.4981 H         1 <0>         0.0654
     31 H13        -0.1644   -0.2011   -2.6590 H         1 <0>         0.1377
     32 H14        -2.3760   -0.8407   -6.2603 H         1 <0>         0.1221
     33 H15        -0.7607   -4.1806   -4.1376 H         1 <0>         0.1269
     34 H16        -2.6642   -3.1155   -7.0093 H         1 <0>         0.3997
     35 H17        -2.0329   -4.4289   -6.1731 H         1 <0>         0.4012
     36 H18        -1.1147    1.6115   -3.9373 H         1 <0>         0.3996
     37 H19        -1.9839    1.3597   -5.3529 H         1 <0>         0.4000
@<TRIPOS>BOND
     1    1    2 1
     2    1   21 1
     3    1   22 1
     4    1   23 1
     5    2    3 1
     6    2    9 1
     7    2    4 1
     8    4    5 1
     9    4   24 1
    10    4   25 1
    11    5    6 1
    12    5   11 am
    13    6    7 1
    14    6    8 1
    15    6   10 1
    16    8    9 1
    17    8   26 1
    18    8   27 1
    19   10   28 1
    20   10   29 1
    21   10   30 1
    22   11   12 2
    23   11   13 1
    24   13   18 ar
    25   13   14 ar
    26   14   15 ar
    27   14   31 1
    28   15   16 ar
    29   15   20 1
    30   16   17 ar
    31   16   32 1
    32   17   18 ar
    33   17   19 1
    34   18   33 1
    35   19   34 1
    36   19   35 1
    37   20   36 1
    38   20   37 1
@<TRIPOS>MOLECULE
ZINC44170008
   37    38     0     0     0
SMALL
USER_CHARGES

@<TRIPOS>ATOM
      1 C1         -0.0184    1.5028    0.0103 C.3       1 <0>        -0.1108
      2 C2          0.0021   -0.0041    0.0020 C.ar      1 <0>        -0.1205
      3 C3          0.0057   -0.6876   -1.1998 C.ar      1 <0>        -0.0875
      4 C4          0.0240   -2.0689   -1.2101 C.ar      1 <0>        -0.1425
      5 C5          0.0391   -2.7702   -0.0132 C.ar      1 <0>         0.1206
      6 C6          0.0359   -2.0820    1.1914 C.ar      1 <0>        -0.1807
      7 C7          0.0229   -0.7006    1.1962 C.ar      1 <0>        -0.0831
      8 O1          0.0567   -4.1291   -0.0207 O.3       1 <0>        -0.3108
      9 C8          0.0716   -4.7847    1.2490 C.3       1 <0>         0.2161
     10 H1         -0.7717   -4.4387    1.8467 H         1 <0>         0.1107
     11 C9         -0.0351   -6.2980    1.0434 C.3       1 <0>         0.0592
     12 H2         -0.9443   -6.5268    0.4875 H         1 <0>         0.0832
     13 C10         1.1839   -6.7854    0.2542 C.3       1 <0>         0.0830
     14 H3          1.1426   -7.8699    0.1526 H         1 <0>         0.0749
     15 C11         2.4576   -6.3894    1.0073 C.3       1 <0>         0.0945
     16 H4          2.4785   -6.8893    1.9756 H         1 <0>         0.0859
     17 C12         2.4680   -4.8726    1.2142 C.3       1 <0>         0.1052
     18 H5          2.4880   -4.3737    0.2453 H         1 <0>         0.0900
     19 O2          1.2925   -4.4821    1.9272 O.3       1 <0>        -0.3589
     20 C13         3.7079   -4.4758    2.0180 C.3       1 <0>         0.0880
     21 O3          3.7794   -3.0517    2.1115 O.3       1 <0>        -0.5638
     22 O4          3.6028   -6.7765    0.2452 O.3       1 <0>        -0.5485
     23 O5          1.1861   -6.1836   -1.0419 O.3       1 <0>        -0.5266
     24 O6         -0.0752   -6.9508    2.3139 O.3       1 <0>        -0.5392
     25 H6          1.0042    1.8801    0.0026 H         1 <0>         0.0682
     26 H7         -0.5455    1.8639   -0.8728 H         1 <0>         0.0647
     27 H8         -0.5286    1.8543    0.9071 H         1 <0>         0.0641
     28 H9         -0.0061   -0.1412   -2.1314 H         1 <0>         0.1274
     29 H10         0.0261   -2.6024   -2.1492 H         1 <0>         0.1287
     30 H11         0.0477   -2.6256    2.1245 H         1 <0>         0.1306
     31 H12         0.0248   -0.1643    2.1337 H         1 <0>         0.1225
     32 H13         3.6441   -4.9029    3.0189 H         1 <0>         0.0516
     33 H14         4.6006   -4.8524    1.5186 H         1 <0>         0.0719
     34 H15         4.5427   -2.7280    2.6091 H         1 <0>         0.3803
     35 H16         3.6576   -7.7264    0.0725 H         1 <0>         0.3836
     36 H17         0.4035   -6.3880   -1.5718 H         1 <0>         0.3796
     37 H18        -0.8211   -6.6854    2.8692 H         1 <0>         0.3887
@<TRIPOS>BOND
     1    1    2 1
     2    1   25 1
     3    1   26 1
     4    1   27 1
     5    2    7 ar
     6    2    3 ar
     7    3    4 ar
     8    3   28 1
     9    4    5 ar
    10    4   29 1
    11    5    6 ar
    12    5    8 1
    13    6    7 ar
    14    6   30 1
    15    7   31 1
    16    8    9 1
    17    9   10 1
    18    9   19 1
    19    9   11 1
    20   11   12 1
    21   11   13 1
    22   11   24 1
    23   13   14 1
    24   13   15 1
    25   13   23 1
    26   15   16 1
    27   15   17 1
    28   15   22 1
    29   17   18 1
    30   17   19 1
    31   17   20 1
    32   20   21 1
    33   20   32 1
    34   20   33 1
    35   21   34 1
    36   22   35 1
    37   23   36 1
    38   24   37 1
@<TRIPOS>MOLECULE
ZINC50397951
   39    39     0     0     0
SMALL
USER_CHARGES

@<TRIPOS>ATOM
      1 C1          0.4515    1.0904   -0.2159 C.3       1 <0>        -0.1694
      2 C2          0.0817   -0.3927   -0.1480 C.3       1 <0>        -0.1037
      3 C3         -1.4333   -0.5336    0.0129 C.3       1 <0>        -0.0641
      4 C4         -1.8031   -2.0167    0.0808 C.3       1 <0>        -0.1168
      5 C5         -3.3181   -2.1577    0.2417 C.3       1 <0>        -0.1636
      6 C6         -1.8696    0.1515    1.2823 C.2       1 <0>         0.2638
      7 S1         -2.2789    1.6970    1.2566 S.2       1 <0>        -0.3502
      8 N1         -1.9147   -0.5385    2.4392 N.pl3     1 <0>        -0.7903
      9 C7         -2.1250    0.1031   -1.1649 C.2       1 <0>         0.5304
     10 O1         -3.0038    0.9191   -0.9836 O.2       1 <0>        -0.4588
     11 N2         -1.7670   -0.2341   -2.4197 N.am      1 <0>        -0.7172
     12 C8         -2.4394    0.3849   -3.5647 C.3       1 <0>         0.1417
     13 H1         -3.4881    0.5544   -3.3205 H         1 <0>         0.1188
     14 C9         -2.3433   -0.5467   -4.7754 C.3       1 <0>        -0.1305
     15 C10        -2.8017    0.2252   -6.0185 C.3       1 <0>        -0.1348
     16 C11        -1.7818    1.3252   -6.3156 C.3       1 <0>         0.1071
     17 N3         -1.5159    2.1114   -5.1175 N.am      1 <0>        -0.7230
     18 C12        -1.7819    1.6980   -3.8791 C.2       1 <0>         0.4971
     19 O2         -1.4780    2.4234   -2.9559 O.2       1 <0>        -0.5177
     20 H2          1.5308    1.1909   -0.3306 H         1 <0>         0.0556
     21 H3         -0.0488    1.5510   -1.0678 H         1 <0>         0.0780
     22 H4          0.1359    1.5860    0.7022 H         1 <0>         0.0679
     23 H5          0.3972   -0.8882   -1.0662 H         1 <0>         0.0768
     24 H6          0.5819   -0.8532    0.7038 H         1 <0>         0.0730
     25 H7         -1.4876   -2.5123   -0.8374 H         1 <0>         0.0834
     26 H8         -1.3029   -2.4773    0.9327 H         1 <0>         0.0755
     27 H9         -3.8184   -1.6971   -0.6102 H         1 <0>         0.0611
     28 H10        -3.5816   -3.2143    0.2901 H         1 <0>         0.0660
     29 H11        -3.6336   -1.6622    1.1598 H         1 <0>         0.0594
     30 H12        -1.6664   -1.4760    2.4547 H         1 <0>         0.3913
     31 H13        -2.1955   -0.0975    3.2562 H         1 <0>         0.4159
     32 H14        -1.0641   -0.8867   -2.5647 H         1 <0>         0.3981
     33 H15        -1.3117   -0.8735   -4.9060 H         1 <0>         0.0773
     34 H16        -2.9868   -1.4133   -4.6235 H         1 <0>         0.0854
     35 H17        -2.8647   -0.4544   -6.8684 H         1 <0>         0.0925
     36 H18        -3.7780    0.6725   -5.8319 H         1 <0>         0.0777
     37 H19        -0.8533    0.8715   -6.6622 H         1 <0>         0.0667
     38 H20        -2.1731    1.9783   -7.0956 H         1 <0>         0.0793
     39 H21        -1.1193    2.9896   -5.2288 H         1 <0>         0.4003
@<TRIPOS>BOND
     1    1    2 1
     2    1   20 1
     3    1   21 1
     4    1   22 1
     5    2    3 1
     6    2   23 1
     7    2   24 1
     8    3    4 1
     9    3    6 1
    10    3    9 1
    11    4    5 1
    12    4   25 1
    13    4   26 1
    14    5   27 1
    15    5   28 1
    16    5   29 1
    17    6    7 2
    18    6    8 1
    19    8   30 1
    20    8   31 1
    21    9   10 2
    22    9   11 am
    23   11   12 1
    24   11   32 1
    25   12   13 1
    26   12   18 1
    27   12   14 1
    28   14   15 1
    29   14   33 1
    30   14   34 1
    31   15   16 1
    32   15   35 1
    33   15   36 1
    34   16   17 1
    35   16   37 1
    36   16   38 1
    37   17   18 am
    38   17   39 1
    39   18   19 2
@<TRIPOS>MOLECULE
ZINC08856567
   54    58     0     0     0
SMALL
USER_CHARGES
benzoyl-fluoro-methyl-(4-nitrophenyl)-BLAHone
@<TRIPOS>ATOM
      1 C1         -0.0866   -0.0699   -0.1476 C.3       1 <0>        -0.0449
      2 C2          1.2753    1.9439    0.0100 C.3       1 <0>        -0.0011
      3 C3          1.1106    3.4086   -0.4695 C.3       1 <0>        -0.0667
      4 H1          0.7447    4.0405    0.3398 H         1 <0>         0.1447
      5 C4          0.0519    3.2888   -1.5922 C.3       1 <0>        -0.1197
      6 H2          0.5092    3.2746   -2.4814 H         1 <0>         0.1327
      7 C5         -0.6856    1.9771   -1.2984 C.3       1 <0>         0.0888
      8 C6         -0.5761    1.0233   -2.4572 C.ar      1 <0>        -0.1676
      9 C7          0.4908    0.4308   -3.0950 C.ar      1 <0>        -0.0950
     10 C8          0.2712   -0.4255   -4.1619 C.ar      1 <0>         0.1055
     11 C9         -1.0230   -0.6823   -4.5828 C.ar      1 <0>        -0.0805
     12 C10        -2.0930   -0.0899   -3.9451 C.ar      1 <0>        -0.0880
     13 C11        -1.8797    0.7727   -2.8722 C.ar      1 <0>         0.1607
     14 N1         -2.7841    1.4834   -2.0786 N.am      1 <0>        -0.6370
     15 C12        -2.1645    2.2150   -1.1338 C.2       1 <0>         0.5205
     16 O1         -2.6947    2.9284   -0.3084 O.2       1 <0>        -0.4237
     17 F1          1.3161   -1.0084   -4.7893 F         1 <0>        -0.1151
     18 C13        -0.9047    4.4519   -1.5373 C.2       1 <0>         0.3939
     19 O2         -1.0979    5.0290   -0.4885 O.2       1 <0>        -0.4012
     20 C14        -1.6044    4.8874   -2.7565 C.ar      1 <0>        -0.1857
     21 C15        -1.3799    4.2280   -3.9692 C.ar      1 <0>        -0.0799
     22 C16        -2.0430    4.6390   -5.1062 C.ar      1 <0>        -0.1269
     23 C17        -2.9211    5.7074   -5.0516 C.ar      1 <0>        -0.0704
     24 C18        -3.1443    6.3687   -3.8564 C.ar      1 <0>        -0.1250
     25 C19        -2.4929    5.9664   -2.7096 C.ar      1 <0>        -0.0467
     26 C20         2.4114    3.9413   -1.0128 C.ar      1 <0>        -0.0526
     27 C21         3.0333    3.3013   -2.0685 C.ar      1 <0>        -0.1177
     28 C22         4.2238    3.7930   -2.5703 C.ar      1 <0>        -0.0459
     29 C23         4.7983    4.9180   -2.0090 C.ar      1 <0>        -0.0259
     30 C24         4.1791    5.5550   -0.9498 C.ar      1 <0>        -0.0441
     31 C25         2.9857    5.0666   -0.4517 C.ar      1 <0>        -0.0922
     32 N2          6.0762    5.4409   -2.5423 N.pl3     1 <0>         0.0169
     33 O3          6.5822    6.4325   -2.0479 O.2       1 <0>        -0.1412
     34 O4          6.6218    4.8797   -3.4755 O.3       1 <0>        -0.1429
     35 H3          0.3947   -0.4708    0.7445 H         1 <0>         0.1397
     36 H4         -1.1087   -0.4435   -0.2080 H         1 <0>         0.1252
     37 H5          0.4679   -0.3840   -1.0319 H         1 <0>         0.1297
     38 H6          1.6365    1.9143    1.0379 H         1 <0>         0.1630
     39 H7          1.9476    1.3965   -0.6507 H         1 <0>         0.1443
     40 H8          1.4986    0.6338   -2.7640 H         1 <0>         0.1493
     41 H9         -1.1954   -1.3500   -5.4141 H         1 <0>         0.1645
     42 H10        -3.0994   -0.2951   -4.2788 H         1 <0>         0.1577
     43 H11        -3.7466    1.4532   -2.1953 H         1 <0>         0.4392
     44 H12        -0.6922    3.3966   -4.0142 H         1 <0>         0.1224
     45 H13        -1.8738    4.1282   -6.0427 H         1 <0>         0.1350
     46 H14        -3.4346    6.0270   -5.9463 H         1 <0>         0.1368
     47 H15        -3.8308    7.2017   -3.8218 H         1 <0>         0.1386
     48 H16        -2.6687    6.4829   -1.7776 H         1 <0>         0.1383
     49 H17         2.5868    2.4196   -2.5040 H         1 <0>         0.1421
     50 H18         4.7074    3.2956   -3.3981 H         1 <0>         0.1633
     51 H19         4.6280    6.4339   -0.5112 H         1 <0>         0.1648
     52 H20         2.5021    5.5640    0.3760 H         1 <0>         0.1560
     53 N3         -0.0951    1.4236   -0.0852 N.4       1 <0>        -0.3786
     54 H21        -0.6374    1.7234    0.7335 H         1 <0>         0.4426
@<TRIPOS>BOND
     1    1   35 1
     2    1   36 1
     3    1   37 1
     4    1   53 1
     5    2    3 1
     6    2   38 1
     7    2   39 1
     8    2   53 1
     9    3    4 1
    10    3    5 1
    11    3   26 1
    12    5    6 1
    13    5    7 1
    14    5   18 1
    15    7   15 1
    16    7    8 1
    17    7   53 1
    18    8   13 ar
    19    8    9 ar
    20    9   10 ar
    21    9   40 1
    22   10   11 ar
    23   10   17 1
    24   11   12 ar
    25   11   41 1
    26   12   13 ar
    27   12   42 1
    28   13   14 1
    29   14   15 am
    30   14   43 1
    31   15   16 2
    32   18   19 2
    33   18   20 1
    34   20   25 ar
    35   20   21 ar
    36   21   22 ar
    37   21   44 1
    38   22   23 ar
    39   22   45 1
    40   23   24 ar
    41   23   46 1
    42   24   25 ar
    43   24   47 1
    44   25   48 1
    45   26   31 ar
    46   26   27 ar
    47   27   28 ar
    48   27   49 1
    49   28   29 ar
    50   28   50 1
    51   29   30 ar
    52   29   32 1
    53   30   31 ar
    54   30   51 1
    55   31   52 1
    56   32   33 2
    57   32   34 1
    58   53   54 1
@<TRIPOS>MOLECULE
ZINC09320404
   61    66     0     0     0
SMALL
USER_CHARGES
(4aR,5S)-1'-[(2-chlorophenyl)methyl]-2'-hydroxy-9-methyl-spiro[1,2,3,4,4a,6-hexahydroquinolino[2,3-f]quinolizine-5,5'-pyrimidine]-4',6'-dione
@<TRIPOS>ATOM
      1 C1         -5.3172   -7.6420    7.2130 C.3       1 <0>        -0.1286
      2 C2         -4.4425   -6.4406    6.9623 C.ar      1 <0>        -0.0745
      3 C3         -3.5426   -6.0284    7.9424 C.ar      1 <0>        -0.0326
      4 C4         -2.7394   -4.9467    7.7482 C.ar      1 <0>        -0.1476
      5 C5         -2.8139   -4.2296    6.5415 C.ar      1 <0>         0.1581
      6 C6         -3.7267   -4.6537    5.5452 C.ar      1 <0>        -0.0979
      7 C7         -4.5413   -5.7716    5.7798 C.ar      1 <0>        -0.0570
      8 C8         -3.7921   -3.9363    4.3361 C.ar      1 <0>         0.0693
      9 C9         -2.9742   -2.8545    4.1695 C.ar      1 <0>        -0.1569
     10 C10        -2.0984   -2.4733    5.1908 C.ar      1 <0>         0.4765
     11 N1         -1.2632   -1.3730    5.0867 N.pl3     1 <0>        -0.4640
     12 C11         0.0090   -1.6079    5.7832 C.3       1 <0>         0.0417
     13 C12         0.8025   -0.3007    5.8496 C.3       1 <0>        -0.1232
     14 C13         1.0599    0.2074    4.4283 C.3       1 <0>        -0.1227
     15 C14        -0.2802    0.3988    3.7124 C.3       1 <0>        -0.1341
     16 C15        -1.0449   -0.9276    3.7116 C.3       1 <0>         0.1201
     17 H1         -0.4717   -1.6811    3.1715 H         1 <0>         0.1111
     18 C16        -2.4019   -0.7282    3.0268 C.3       1 <0>        -0.1563
     19 C17        -3.0536   -2.1043    2.8639 C.3       1 <0>        -0.0503
     20 C18        -3.2739    0.1430    3.8846 C.2       1 <0>         0.5310
     21 O1         -3.5346   -0.2192    5.0147 O.2       1 <0>        -0.4442
     22 N2         -3.7685    1.2939    3.4512 N.2       1 <0>        -0.6426
     23 C19        -3.5312    1.7547    2.2430 C.2       1 <0>         0.6682
     24 N3         -2.7541    1.0724    1.3551 N.am      1 <0>        -0.5447
     25 C20        -2.2000   -0.1079    1.6733 C.2       1 <0>         0.5448
     26 O2         -1.5182   -0.6836    0.8526 O.2       1 <0>        -0.4438
     27 C21        -2.5236    1.6366    0.0229 C.3       1 <0>         0.1319
     28 C22        -1.3617    2.5948    0.0773 C.ar      1 <0>        -0.0968
     29 C23        -0.7757    2.9026    1.2909 C.ar      1 <0>        -0.1126
     30 C24         0.2860    3.7862    1.3417 C.ar      1 <0>        -0.1039
     31 C25         0.7668    4.3576    0.1781 C.ar      1 <0>        -0.0985
     32 C26         0.1861    4.0456   -1.0364 C.ar      1 <0>        -0.0958
     33 C27        -0.8771    3.1614   -1.0879 C.ar      1 <0>        -0.0241
     34 Cl1        -1.6071    2.7689   -2.6132 Cl        1 <0>        -0.0530
     35 O3         -4.0692    2.9309    1.8735 O.3       1 <0>        -0.4364
     36 H2         -4.8069   -8.5413    6.8682 H         1 <0>         0.0862
     37 H3         -5.5211   -7.7265    8.2804 H         1 <0>         0.0798
     38 H4         -6.2563   -7.5270    6.6717 H         1 <0>         0.0797
     39 H5         -3.4815   -6.5755    8.8716 H         1 <0>         0.1518
     40 H6         -2.0472   -4.6405    8.5186 H         1 <0>         0.1507
     41 H7         -5.2431   -6.0997    5.0273 H         1 <0>         0.1570
     42 H8         -4.4756   -4.2351    3.5551 H         1 <0>         0.1777
     43 H9         -0.1903   -1.9635    6.7940 H         1 <0>         0.0907
     44 H10         0.5868   -2.3570    5.2417 H         1 <0>         0.0877
     45 H11         1.7542   -0.4779    6.3506 H         1 <0>         0.0991
     46 H12         0.2323    0.4442    6.4046 H         1 <0>         0.0869
     47 H13         1.6625   -0.5204    3.8849 H         1 <0>         0.0775
     48 H14         1.5888    1.1595    4.4721 H         1 <0>         0.0909
     49 H15        -0.1020    0.7170    2.6852 H         1 <0>         0.0917
     50 H16        -0.8664    1.1568    4.2319 H         1 <0>         0.0836
     51 H17        -4.0983   -1.9802    2.5789 H         1 <0>         0.1136
     52 H18        -2.5298   -2.6651    2.0898 H         1 <0>         0.1255
     53 H19        -3.4169    2.1672   -0.3066 H         1 <0>         0.1265
     54 H20        -2.2991    0.8328   -0.6783 H         1 <0>         0.1281
     55 H21        -1.1506    2.4563    2.2001 H         1 <0>         0.1128
     56 H22         0.7404    4.0301    2.2906 H         1 <0>         0.1324
     57 H23         1.5966    5.0477    0.2183 H         1 <0>         0.1395
     58 H24         0.5617    4.4920   -1.9453 H         1 <0>         0.1428
     59 H25        -4.6152    3.3887    2.5273 H         1 <0>         0.4553
     60 N4         -1.9901   -3.1391    6.3820 N.ar      1 <0>        -0.5400
     61 H26        -1.3331   -2.8422    7.1131 H         1 <0>         0.4621
@<TRIPOS>BOND
     1    1    2 1
     2    1   36 1
     3    1   37 1
     4    1   38 1
     5    2    7 ar
     6    2    3 ar
     7    3    4 ar
     8    3   39 1
     9    4    5 ar
    10    4   40 1
    11    5    6 ar
    12    5   60 ar
    13    6    7 ar
    14    6    8 ar
    15    7   41 1
    16    8    9 ar
    17    8   42 1
    18    9   19 1
    19    9   10 ar
    20   10   11 1
    21   10   60 ar
    22   11   16 1
    23   11   12 1
    24   12   13 1
    25   12   43 1
    26   12   44 1
    27   13   14 1
    28   13   45 1
    29   13   46 1
    30   14   15 1
    31   14   47 1
    32   14   48 1
    33   15   16 1
    34   15   49 1
    35   15   50 1
    36   16   17 1
    37   16   18 1
    38   18   25 1
    39   18   19 1
    40   18   20 1
    41   19   51 1
    42   19   52 1
    43   20   21 2
    44   20   22 1
    45   22   23 2
    46   23   24 1
    47   23   35 1
    48   24   25 am
    49   24   27 1
    50   25   26 2
    51   27   28 1
    52   27   53 1
    53   27   54 1
    54   28   33 ar
    55   28   29 ar
    56   29   30 ar
    57   29   55 1
    58   30   31 ar
    59   30   56 1
    60   31   32 ar
    61   31   57 1
    62   32   33 ar
    63   32   58 1
    64   33   34 1
    65   35   59 1
    66   60   61 1
@<TRIPOS>MOLECULE
ZINC35671615
   49    53     0     0     0
SMALL
USER_CHARGES

@<TRIPOS>ATOM
      1 C1          0.1661    1.6327    0.5528 C.2       1 <0>        -0.1703
      2 C2          1.3611    2.2934    0.3379 C.2       1 <0>        -0.0649
      3 C3          2.5054    1.5716    0.2538 C.2       1 <0>        -0.2701
      4 S1          1.9081   -0.0953    0.4811 S.3       1 <0>         0.0591
      5 C4          0.1738    0.2826    0.6729 C.2       1 <0>        -0.1038
      6 C5          3.9157    2.0517    0.0267 C.3       1 <0>         0.1157
      7 H1          3.9842    3.1101    0.2783 H         1 <0>         0.1589
      8 C6          4.2923    1.8514   -1.4427 C.3       1 <0>         0.0864
      9 N1          3.4439    2.6991   -2.2841 N.am      1 <0>        -0.5311
     10 C7          2.3139    2.1947   -2.8477 C.2       1 <0>         0.3765
     11 N2          1.5250    2.8924   -3.5999 N.2       1 <0>        -0.4883
     12 C8          1.7762    4.2132   -3.8873 C.2       1 <0>         0.1561
     13 C9          1.0022    5.0792   -4.6874 C.2       1 <0>         0.1283
     14 C10         1.4610    6.3683   -4.8318 C.2       1 <0>        -0.2272
     15 S2          2.9465    6.4386   -3.8830 S.3       1 <0>         0.3271
     16 C11         2.9414    4.7566   -3.3127 C.2       1 <0>        -0.3212
     17 C12         3.7750    3.9942   -2.5033 C.2       1 <0>         0.5892
     18 O1          4.7798    4.4772   -2.0068 O.2       1 <0>        -0.5153
     19 S3          0.6688    7.6098   -5.7829 S.3       1 <0>         0.0652
     20 C13        -0.2558    6.6009   -6.9886 C.3       1 <0>        -0.1361
     21 C14        -0.8003    5.3844   -6.2965 C.2       1 <0>         0.5194
     22 O2         -1.8938    4.9978   -6.6528 O.2       1 <0>        -0.5038
     23 N3         -0.2046    4.6877   -5.3321 N.am      1 <0>        -0.6380
     24 N4          4.8366    1.2856    0.8770 N.4       1 <0>        -0.3773
     25 C15         6.1992    1.8064    0.7132 C.3       1 <0>        -0.0147
     26 C16         7.1747    0.9604    1.5343 C.3       1 <0>        -0.1435
     27 C17         6.7770    1.0225    3.0119 C.3       1 <0>        -0.1399
     28 C18         5.3289    0.5472    3.1610 C.3       1 <0>        -0.1427
     29 C19         4.4218    1.4084    2.2796 C.3       1 <0>        -0.0097
     30 H2         -0.7593    2.1844    0.6282 H         1 <0>         0.1524
     31 H3          1.3827    3.3686    0.2383 H         1 <0>         0.1389
     32 H4         -0.6542   -0.3899    0.8414 H         1 <0>         0.2028
     33 H5          5.3375    2.1232   -1.5902 H         1 <0>         0.1291
     34 H6          4.1465    0.8064   -1.7159 H         1 <0>         0.1231
     35 H7          2.0627    1.1614   -2.6587 H         1 <0>         0.2047
     36 H8         -1.0791    7.1862   -7.3982 H         1 <0>         0.1635
     37 H9          0.4109    6.2940   -7.7944 H         1 <0>         0.1376
     38 H10        -0.6202    3.8580   -5.0500 H         1 <0>         0.4240
     39 H11         6.4795    1.7645   -0.3393 H         1 <0>         0.1332
     40 H12         6.2365    2.8399    1.0574 H         1 <0>         0.1361
     41 H13         7.1384   -0.0734    1.1907 H         1 <0>         0.0892
     42 H14         8.1855    1.3497    1.4128 H         1 <0>         0.1163
     43 H15         7.4345    0.3766    3.5937 H         1 <0>         0.0964
     44 H16         6.8625    2.0486    3.3695 H         1 <0>         0.0833
     45 H17         5.2543   -0.4952    2.8512 H         1 <0>         0.0889
     46 H18         5.0204    0.6411    4.2022 H         1 <0>         0.1143
     47 H19         4.4970    2.4504    2.5904 H         1 <0>         0.1309
     48 H20         3.3900    1.0727    2.3836 H         1 <0>         0.1313
     49 H21         4.8149    0.3143    0.6047 H         1 <0>         0.4198
@<TRIPOS>BOND
     1    1    5 2
     2    1    2 1
     3    1   30 1
     4    2    3 2
     5    2   31 1
     6    3    4 1
     7    3    6 1
     8    4    5 1
     9    5   32 1
    10    6    7 1
    11    6    8 1
    12    6   24 1
    13    8    9 1
    14    8   33 1
    15    8   34 1
    16    9   17 am
    17    9   10 1
    18   10   11 2
    19   10   35 1
    20   11   12 1
    21   12   16 2
    22   12   13 1
    23   13   23 1
    24   13   14 2
    25   14   15 1
    26   14   19 1
    27   15   16 1
    28   16   17 1
    29   17   18 2
    30   19   20 1
    31   20   21 1
    32   20   36 1
    33   20   37 1
    34   21   22 2
    35   21   23 am
    36   23   38 1
    37   24   29 1
    38   24   25 1
    39   24   49 1
    40   25   26 1
    41   25   39 1
    42   25   40 1
    43   26   27 1
    44   26   41 1
    45   26   42 1
    46   27   28 1
    47   27   43 1
    48   27   44 1
    49   28   29 1
    50   28   45 1
    51   28   46 1
    52   29   47 1
    53   29   48 1
@<TRIPOS>MOLECULE
ZINC45259057
   60    65     0     0     0
SMALL
USER_CHARGES

@<TRIPOS>ATOM
      1 C1          0.6517    1.6198   -0.1378 C.3       1 <0>        -0.1866
      2 C2          0.7398    0.0929   -0.1803 C.3       1 <0>        -0.0071
      3 N1          1.3173   -0.3994    1.0775 N.4       1 <0>        -0.3964
      4 C3          2.7642   -0.0645    1.1558 C.3       1 <0>         0.0362
      5 H1          2.9669    0.9623    0.8516 H         1 <0>         0.1532
      6 C4          3.4436   -1.0950    0.2248 C.3       1 <0>        -0.1421
      7 C5          2.4787   -2.2987    0.1966 C.3       1 <0>        -0.1430
      8 C6          1.3040   -1.8861    1.1133 C.3       1 <0>         0.0401
      9 H2          0.3532   -2.2983    0.7755 H         1 <0>         0.1545
     10 C7          1.6559   -2.3104    2.5481 C.3       1 <0>        -0.1434
     11 C8          3.0846   -1.8577    2.8628 C.3       1 <0>        -0.0535
     12 C9          3.2185   -0.3416    2.5979 C.3       1 <0>        -0.1417
     13 C10         3.3915   -2.1376    4.3114 C.2       1 <0>         0.1804
     14 C11         4.4172   -2.9569    4.6500 C.2       1 <0>        -0.2027
     15 C12         4.6846   -3.2025    6.0042 C.2       1 <0>         0.1887
     16 N2          3.9473   -2.6431    6.9356 N.2       1 <0>        -0.4459
     17 C13         2.9330   -1.8333    6.6133 C.2       1 <0>         0.2843
     18 N3          2.6435   -1.5646    5.3002 N.pl3     1 <0>        -0.3023
     19 N4          1.5500   -0.6923    5.2654 N.2       1 <0>        -0.3161
     20 C14         1.1729   -0.4212    6.5008 C.2       1 <0>         0.1821
     21 C15         2.0099   -1.1237    7.3892 C.2       1 <0>        -0.1679
     22 C16         1.9363   -1.1032    8.8675 C.ar      1 <0>        -0.0027
     23 C17         0.8395   -1.6657    9.5214 C.ar      1 <0>        -0.0796
     24 C18         0.7735   -1.6457   10.8997 C.ar      1 <0>        -0.1350
     25 C19         1.7931   -1.0683   11.6368 C.ar      1 <0>         0.0830
     26 C20         2.8891   -0.5059   10.9928 C.ar      1 <0>         0.0793
     27 C21         2.9659   -0.5268    9.6109 C.ar      1 <0>        -0.0958
     28 O1          3.8882    0.0602   11.7206 O.3       1 <0>        -0.4860
     29 F1          1.7225   -1.0509   12.9859 F         1 <0>        -0.1274
     30 C22         0.0497    0.4657    6.8881 C.ar      1 <0>         0.0162
     31 C23         0.1716    1.3513    7.9631 C.ar      1 <0>        -0.1362
     32 C24        -0.8982    2.1591    8.2893 C.ar      1 <0>         0.1111
     33 N5         -2.0232    2.1033    7.6024 N.ar      1 <0>        -0.4699
     34 C25        -2.1795    1.2821    6.5817 C.ar      1 <0>         0.1032
     35 C26        -1.1585    0.4434    6.1847 C.ar      1 <0>        -0.1471
     36 H3          1.6499    2.0379   -0.0082 H         1 <0>         0.0773
     37 H4          0.2231    1.9851   -1.0711 H         1 <0>         0.1066
     38 H5          0.0192    1.9241    0.6961 H         1 <0>         0.0797
     39 H6         -0.2584   -0.3252   -0.3099 H         1 <0>         0.1287
     40 H7          1.3723   -0.2115   -1.0142 H         1 <0>         0.1286
     41 H8          3.5628   -0.6810   -0.7764 H         1 <0>         0.1016
     42 H9          4.4103   -1.3933    0.6304 H         1 <0>         0.1134
     43 H10         2.1235   -2.4764   -0.8184 H         1 <0>         0.1019
     44 H11         2.9711   -3.1887    0.5884 H         1 <0>         0.1132
     45 H12         0.9625   -1.8432    3.2474 H         1 <0>         0.1035
     46 H13         1.5892   -3.3949    2.6349 H         1 <0>         0.1158
     47 H14         3.7854   -2.4047    2.2322 H         1 <0>         0.1260
     48 H15         4.2600   -0.0427    2.7163 H         1 <0>         0.1149
     49 H16         2.5942    0.2212    3.2918 H         1 <0>         0.1048
     50 H17         5.0228   -3.4167    3.8831 H         1 <0>         0.1734
     51 H18         5.4997   -3.8542    6.2821 H         1 <0>         0.1900
     52 H19         0.0422   -2.1162    8.9489 H         1 <0>         0.1314
     53 H20        -0.0761   -2.0814   11.4046 H         1 <0>         0.1445
     54 H21         3.8190   -0.0941    9.1095 H         1 <0>         0.1354
     55 H22         4.5949   -0.5539   11.9627 H         1 <0>         0.3962
     56 H23         1.0895    1.4020    8.5300 H         1 <0>         0.1410
     57 H24        -0.8136    2.8461    9.1183 H         1 <0>         0.1658
     58 H25        -3.1179    1.2690    6.0473 H         1 <0>         0.1619
     59 H26        -1.2918   -0.2232    5.3455 H         1 <0>         0.1345
     60 H27         0.8194   -0.0205    1.8691 H         1 <0>         0.4259
@<TRIPOS>BOND
     1    1    2 1
     2    1   36 1
     3    1   37 1
     4    1   38 1
     5    2    3 1
     6    2   39 1
     7    2   40 1
     8    3    8 1
     9    3    4 1
    10    3   60 1
    11    4    5 1
    12    4   12 1
    13    4    6 1
    14    6    7 1
    15    6   41 1
    16    6   42 1
    17    7    8 1
    18    7   43 1
    19    7   44 1
    20    8    9 1
    21    8   10 1
    22   10   11 1
    23   10   45 1
    24   10   46 1
    25   11   12 1
    26   11   13 1
    27   11   47 1
    28   12   48 1
    29   12   49 1
    30   13   18 1
    31   13   14 2
    32   14   15 1
    33   14   50 1
    34   15   16 2
    35   15   51 1
    36   16   17 1
    37   17   21 2
    38   17   18 1
    39   18   19 1
    40   19   20 2
    41   20   21 1
    42   20   30 1
    43   21   22 1
    44   22   27 ar
    45   22   23 ar
    46   23   24 ar
    47   23   52 1
    48   24   25 ar
    49   24   53 1
    50   25   26 ar
    51   25   29 1
    52   26   27 ar
    53   26   28 1
    54   27   54 1
    55   28   55 1
    56   30   35 ar
    57   30   31 ar
    58   31   32 ar
    59   31   56 1
    60   32   33 ar
    61   32   57 1
    62   33   34 ar
    63   34   35 ar
    64   34   58 1
    65   35   59 1
@<TRIPOS>MOLECULE
ZINC41584736
   61    66     0     0     0
SMALL
USER_CHARGES

@<TRIPOS>ATOM
      1 C1          0.3720    1.4630   -0.0072 C.3       1 <0>        -0.1418
      2 C2          0.0636   -0.0121   -0.0013 C.ar      1 <0>         0.0814
      3 C3         -0.1566   -0.6700   -1.1785 C.ar      1 <0>        -0.1807
      4 C4         -0.4422   -2.0324   -1.1753 C.ar      1 <0>         0.2076
      5 C5         -0.5066   -2.7364    0.0167 C.ar      1 <0>        -0.2190
      6 C6         -0.2853   -2.0828    1.2222 C.ar      1 <0>         0.1795
      7 C7          0.0081   -0.7095    1.2058 C.ar      1 <0>        -0.2637
      8 C8          0.1967   -0.3080    2.6116 C.2       1 <0>         0.4158
      9 O1          0.4610    0.8011    3.0417 O.2       1 <0>        -0.3957
     10 C9         -0.0057   -1.5475    3.3794 C.2       1 <0>        -0.0597
     11 C10         0.0669   -1.6761    4.7273 C.2       1 <0>         0.0183
     12 C11        -0.0203   -3.0074    5.3444 C.ar      1 <0>        -0.0791
     13 C12        -0.0058   -4.1559    4.5444 C.ar      1 <0>        -0.0882
     14 C13        -0.0876   -5.4010    5.1302 C.ar      1 <0>        -0.1079
     15 C14        -0.1843   -5.5180    6.5061 C.ar      1 <0>        -0.0832
     16 C15        -0.1999   -4.3869    7.3055 C.ar      1 <0>        -0.0371
     17 C16        -0.1125   -3.1334    6.7347 C.ar      1 <0>        -0.0739
     18 Cl1        -0.3227   -4.5466    9.0297 Cl        1 <0>        -0.0492
     19 O2         -0.2911   -2.5328    2.4959 O.3       1 <0>        -0.2095
     20 C17        -0.8172   -4.2110    0.0050 C.3       1 <0>         0.0487
     21 N1          0.4341   -4.9742   -0.0935 N.4       1 <0>        -0.3878
     22 C18         0.1421   -6.4057    0.0240 C.3       1 <0>        -0.0074
     23 C19         1.4130   -7.2361   -0.0754 C.3       1 <0>        -0.1197
     24 H1          1.1374   -8.2907   -0.0707 H         1 <0>         0.1455
     25 C20         2.1557   -6.9356   -1.3809 C.3       1 <0>        -0.1301
     26 C21         2.4277   -5.4269   -1.4169 C.3       1 <0>        -0.0623
     27 H2          2.9878   -5.1599   -2.3130 H         1 <0>         0.1521
     28 C22         1.0728   -4.7003   -1.3892 C.3       1 <0>        -0.0128
     29 C23         3.1939   -5.0331   -0.1739 C.2       1 <0>         0.0970
     30 C24         4.0244   -3.9608   -0.2616 C.2       1 <0>        -0.1871
     31 C25         4.7146   -3.5026    0.8661 C.2       1 <0>        -0.0253
     32 C26         4.5204   -4.1346    2.0594 C.2       1 <0>        -0.2161
     33 C27         3.6540   -5.2352    2.1158 C.2       1 <0>         0.5080
     34 O3          3.4246   -5.7692    3.1891 O.2       1 <0>        -0.5195
     35 N2          3.0678   -5.7119    0.9900 N.am      1 <0>        -0.5050
     36 C28         2.3483   -6.9784    1.0943 C.3       1 <0>         0.0749
     37 O4         -0.6599   -2.6769   -2.3498 O.3       1 <0>        -0.4820
     38 H3          1.4495    1.6086   -0.0839 H         1 <0>         0.0956
     39 H4         -0.1197    1.9335   -0.8586 H         1 <0>         0.0877
     40 H5          0.0093    1.9137    0.9165 H         1 <0>         0.0900
     41 H6         -0.1094   -0.1316   -2.1136 H         1 <0>         0.1590
     42 H7          0.1889   -0.8004    5.3476 H         1 <0>         0.1751
     43 H8          0.0689   -4.0667    3.4707 H         1 <0>         0.1313
     44 H9         -0.0764   -6.2878    4.5139 H         1 <0>         0.1325
     45 H10        -0.2484   -6.4965    6.9588 H         1 <0>         0.1411
     46 H11        -0.1199   -2.2523    7.3591 H         1 <0>         0.1455
     47 H12        -1.3356   -4.4804    0.9252 H         1 <0>         0.1415
     48 H13        -1.4519   -4.4418   -0.8505 H         1 <0>         0.1531
     49 H14        -0.3343   -6.5953    0.9858 H         1 <0>         0.1369
     50 H15        -0.5392   -6.6981   -0.7750 H         1 <0>         0.1447
     51 H16         3.0981   -7.4827   -1.4054 H         1 <0>         0.1062
     52 H17         1.5383   -7.2212   -2.2326 H         1 <0>         0.1060
     53 H18         0.4406   -5.0695   -2.1967 H         1 <0>         0.1531
     54 H19         1.2281   -3.6275   -1.5036 H         1 <0>         0.1254
     55 H20         4.1528   -3.4587   -1.2092 H         1 <0>         0.1530
     56 H21         5.3900   -2.6630    0.7929 H         1 <0>         0.1473
     57 H22         5.0277   -3.7916    2.9489 H         1 <0>         0.1590
     58 H23         1.7684   -6.9804    2.0172 H         1 <0>         0.1100
     59 H24         3.0852   -7.7802    1.1406 H         1 <0>         0.1062
     60 H25         0.1396   -3.0446   -2.7508 H         1 <0>         0.3966
     61 H26         1.0553   -4.6974    0.6518 H         1 <0>         0.4179
@<TRIPOS>BOND
     1    1    2 1
     2    1   38 1
     3    1   39 1
     4    1   40 1
     5    2    7 ar
     6    2    3 ar
     7    3    4 ar
     8    3   41 1
     9    4    5 ar
    10    4   37 1
    11    5    6 ar
    12    5   20 1
    13    6   19 1
    14    6    7 ar
    15    7    8 1
    16    8    9 2
    17    8   10 1
    18   10   11 2
    19   10   19 1
    20   11   12 1
    21   11   42 1
    22   12   17 ar
    23   12   13 ar
    24   13   14 ar
    25   13   43 1
    26   14   15 ar
    27   14   44 1
    28   15   16 ar
    29   15   45 1
    30   16   17 ar
    31   16   18 1
    32   17   46 1
    33   20   21 1
    34   20   47 1
    35   20   48 1
    36   21   28 1
    37   21   22 1
    38   21   61 1
    39   22   23 1
    40   22   49 1
    41   22   50 1
    42   23   24 1
    43   23   36 1
    44   23   25 1
    45   25   26 1
    46   25   51 1
    47   25   52 1
    48   26   27 1
    49   26   28 1
    50   26   29 1
    51   28   53 1
    52   28   54 1
    53   29   35 1
    54   29   30 2
    55   30   31 1
    56   30   55 1
    57   31   32 2
    58   31   56 1
    59   32   33 1
    60   32   57 1
    61   33   34 2
    62   33   35 am
    63   35   36 1
    64   36   58 1
    65   36   59 1
    66   37   60 1
@<TRIPOS>MOLECULE
ZINC08919565
   65    69     0     0     0
SMALL
USER_CHARGES
[3-(1,1-dimethylpropyl-hydroxy-BLAHyl)phenyl] 3-(2-furyl)prop-2-enoate
@<TRIPOS>ATOM
      1 C1          7.4172   -2.0810   -0.2360 C.3       1 <0>        -0.1570
      2 C2          6.0383   -1.5631    0.1780 C.3       1 <0>        -0.1162
      3 C3          4.9572   -2.3043   -0.6111 C.3       1 <0>        -0.0570
      4 C4          5.0484   -3.8030   -0.3172 C.3       1 <0>        -0.1468
      5 C5          5.1637   -2.0646   -2.1080 C.3       1 <0>        -0.1498
      6 C6          3.5783   -1.7864   -0.1971 C.3       1 <0>        -0.0684
      7 H1          3.4312   -1.9516    0.8702 H         1 <0>         0.0754
      8 C7          2.4938   -2.5266   -0.9855 C.3       1 <0>        -0.1183
      9 C8          1.1161   -2.1986   -0.4081 C.3       1 <0>        -0.0574
     10 C9          0.9611   -0.6839   -0.3363 C.2       1 <0>        -0.0323
     11 C10         2.0435    0.1265   -0.3858 C.2       1 <0>        -0.2031
     12 S1          1.3874    1.7708   -0.2756 S.3       1 <0>         0.1390
     13 C11        -0.2763    1.3867   -0.1677 C.2       1 <0>         0.1321
     14 C12        -0.3208   -0.0121   -0.2135 C.2       1 <0>        -0.2446
     15 C13        -1.6575   -0.6543   -0.1270 C.2       1 <0>         0.4691
     16 N1         -2.6755    0.1004    0.1817 N.2       1 <0>        -0.6469
     17 C14        -2.5862    1.5088    0.5462 C.3       1 <0>         0.4006
     18 H2         -3.4877    2.0208    0.2097 H         1 <0>         0.1213
     19 N2         -1.4098    2.1563   -0.0629 N.pl3     1 <0>        -0.7035
     20 C15        -2.4890    1.6231    2.0457 C.ar      1 <0>        -0.1059
     21 C16        -1.8031    2.6805    2.6148 C.ar      1 <0>        -0.0998
     22 C17        -1.7124    2.7886    3.9901 C.ar      1 <0>        -0.1053
     23 C18        -2.3072    1.8399    4.7995 C.ar      1 <0>        -0.1129
     24 C19        -2.9955    0.7780    4.2310 C.ar      1 <0>         0.0858
     25 C20        -3.0898    0.6749    2.8504 C.ar      1 <0>        -0.0913
     26 O1         -3.5814   -0.1565    5.0250 O.3       1 <0>        -0.2935
     27 C21        -3.0514   -1.3981    5.0397 C.2       1 <0>         0.5014
     28 O2         -2.0181   -1.6259    4.4380 O.2       1 <0>        -0.4931
     29 C22        -3.6961   -2.4329    5.7534 C.2       1 <0>        -0.2041
     30 C23        -3.1631   -3.6815    5.7681 C.2       1 <0>         0.0429
     31 C24        -3.8089   -4.7181    6.4831 C.2       1 <0>        -0.0292
     32 C25        -3.3838   -6.0276    6.5783 C.2       1 <0>        -0.1426
     33 C26        -4.3209   -6.6939    7.3819 C.2       1 <0>        -0.2219
     34 C27        -5.2638   -5.7900    7.7301 C.2       1 <0>        -0.0034
     35 O3         -4.9536   -4.6041    7.1888 O.3       1 <0>        -0.1629
     36 O4         -1.8137   -1.9780   -0.3601 O.3       1 <0>        -0.4518
     37 C28         3.4773   -0.2859   -0.5077 C.3       1 <0>        -0.0289
     38 H3          8.1875   -1.5530    0.3262 H         1 <0>         0.0509
     39 H4          7.4822   -3.1488   -0.0266 H         1 <0>         0.0565
     40 H5          7.5643   -1.9103   -1.3024 H         1 <0>         0.0568
     41 H6          5.9733   -0.4954   -0.0313 H         1 <0>         0.0632
     42 H7          5.8912   -1.7339    1.2444 H         1 <0>         0.0612
     43 H8          4.2781   -4.3311   -0.8794 H         1 <0>         0.0587
     44 H9          6.0307   -4.1720   -0.6122 H         1 <0>         0.0584
     45 H10         4.9013   -3.9738    0.7492 H         1 <0>         0.0543
     46 H11         5.0987   -0.9969   -2.3174 H         1 <0>         0.0576
     47 H12         6.1460   -2.4335   -2.4030 H         1 <0>         0.0576
     48 H13         4.3934   -2.5926   -2.6702 H         1 <0>         0.0576
     49 H14         2.6677   -3.6007   -0.9197 H         1 <0>         0.0738
     50 H15         2.5315   -2.2182   -2.0303 H         1 <0>         0.0672
     51 H16         1.0288   -2.6225    0.5923 H         1 <0>         0.0762
     52 H17         0.3415   -2.6149   -1.0522 H         1 <0>         0.0842
     53 H18        -1.4345    3.0753   -0.3722 H         1 <0>         0.4166
     54 H19        -1.3377    3.4233    1.9839 H         1 <0>         0.1246
     55 H20        -1.1764    3.6154    4.4322 H         1 <0>         0.1336
     56 H21        -2.2367    1.9251    5.8738 H         1 <0>         0.1326
     57 H22        -3.6291   -0.1482    2.4054 H         1 <0>         0.1347
     58 H23        -4.6129   -2.2308    6.2872 H         1 <0>         0.1457
     59 H24        -2.2463   -3.8836    5.2343 H         1 <0>         0.1634
     60 H25        -2.5015   -6.4549    6.1251 H         1 <0>         0.1604
     61 H26        -4.2962   -7.7358    7.6654 H         1 <0>         0.1578
     62 H27        -6.1279   -5.9912    8.3459 H         1 <0>         0.2109
     63 H28        -2.7260   -2.2872   -0.2759 H         1 <0>         0.4051
     64 H29         4.0829    0.2774    0.2022 H         1 <0>         0.0769
     65 H30         3.8287   -0.0966   -1.5220 H         1 <0>         0.0840
@<TRIPOS>BOND
     1    1    2 1
     2    1   38 1
     3    1   39 1
     4    1   40 1
     5    2    3 1
     6    2   41 1
     7    2   42 1
     8    3    4 1
     9    3    5 1
    10    3    6 1
    11    4   43 1
    12    4   44 1
    13    4   45 1
    14    5   46 1
    15    5   47 1
    16    5   48 1
    17    6    7 1
    18    6   37 1
    19    6    8 1
    20    8    9 1
    21    8   49 1
    22    8   50 1
    23    9   10 1
    24    9   51 1
    25    9   52 1
    26   10   14 1
    27   10   11 2
    28   11   12 1
    29   11   37 1
    30   12   13 1
    31   13   19 1
    32   13   14 2
    33   14   15 1
    34   15   16 2
    35   15   36 1
    36   16   17 1
    37   17   18 1
    38   17   19 1
    39   17   20 1
    40   19   53 1
    41   20   25 ar
    42   20   21 ar
    43   21   22 ar
    44   21   54 1
    45   22   23 ar
    46   22   55 1
    47   23   24 ar
    48   23   56 1
    49   24   25 ar
    50   24   26 1
    51   25   57 1
    52   26   27 1
    53   27   28 2
    54   27   29 1
    55   29   30 2
    56   29   58 1
    57   30   31 1
    58   30   59 1
    59   31   35 1
    60   31   32 2
    61   32   33 1
    62   32   60 1
    63   33   34 2
    64   33   61 1
    65   34   35 1
    66   34   62 1
    67   36   63 1
    68   37   64 1
    69   37   65 1
@<TRIPOS>MOLECULE
ZINC20568525
   56    59     0     0     0
SMALL
USER_CHARGES
N-[(6R)-3-[(2,4-dichlorophenyl)carbamoyl]-6-ethyl-4,5,6,7-tetrahydrobenzothiophen-2-yl]-1-ethyl-pyrazole-3-carboxamide
@<TRIPOS>ATOM
      1 C1         -3.8477    3.3531   -0.9702 C.3       1 <0>        -0.1579
      2 C2         -3.7629    2.1329   -0.0511 C.3       1 <0>        -0.1196
      3 C3         -2.4795    1.3561   -0.3519 C.3       1 <0>        -0.0827
      4 H1         -2.4531    1.1096   -1.4236 H         1 <0>         0.0770
      5 C4         -2.4522    0.0690    0.4775 C.3       1 <0>        -0.1138
      6 C5         -1.3065   -0.8288    0.0071 C.3       1 <0>        -0.0614
      7 C6         -0.0176   -0.0162    0.0006 C.2       1 <0>        -0.0611
      8 C7         -0.0466    1.3342    0.0087 C.2       1 <0>        -0.2072
      9 S1          1.6548    1.8237   -0.0018 S.3       1 <0>         0.2324
     10 C8          2.3963    0.2578   -0.0174 C.2       1 <0>         0.0906
     11 C9          1.3101   -0.6065   -0.0138 C.2       1 <0>        -0.2375
     12 C10         1.4954   -2.0605   -0.0248 C.2       1 <0>         0.5908
     13 O1          1.5640   -2.6574   -1.0834 O.2       1 <0>        -0.5064
     14 N1          1.5900   -2.7366    1.1373 N.am      1 <0>        -0.6760
     15 C11         1.6507   -4.1349    1.1306 C.ar      1 <0>         0.1745
     16 C12         1.1162   -4.8492    0.0665 C.ar      1 <0>        -0.1123
     17 C13         1.1777   -6.2290    0.0620 C.ar      1 <0>        -0.0794
     18 C14         1.7713   -6.9004    1.1166 C.ar      1 <0>        -0.0468
     19 C15         2.3049   -6.1919    2.1786 C.ar      1 <0>        -0.0788
     20 C16         2.2510   -4.8108    2.1860 C.ar      1 <0>        -0.0628
     21 Cl1         2.9269   -3.9218    3.5151 Cl        1 <0>        -0.0520
     22 Cl2         1.8471   -8.6347    1.1067 Cl        1 <0>        -0.0571
     23 N2          3.7458   -0.0556   -0.0307 N.am      1 <0>        -0.6250
     24 C17         4.6663    0.9289   -0.0321 C.2       1 <0>         0.6086
     25 O2          4.3124    2.0920   -0.0217 O.2       1 <0>        -0.4923
     26 C18         6.1045    0.5949   -0.0462 C.2       1 <0>        -0.0245
     27 C19         7.1822    1.5123   -0.0494 C.2       1 <0>        -0.1708
     28 C20         8.3031    0.7536   -0.0636 C.2       1 <0>        -0.0133
     29 N3          7.9114   -0.5388   -0.0686 N.pl3     1 <0>        -0.2713
     30 N4          6.6291   -0.6145   -0.0526 N.2       1 <0>        -0.2550
     31 C21         8.8185   -1.6891   -0.0831 C.3       1 <0>         0.1106
     32 C22         8.4941   -2.6093    1.0954 C.3       1 <0>        -0.1706
     33 C23        -1.2604    2.2115    0.0180 C.3       1 <0>        -0.0308
     34 H2         -4.7704    3.9116   -0.7540 H         1 <0>         0.0546
     35 H3         -3.8567    3.0221   -2.0192 H         1 <0>         0.0548
     36 H4         -2.9769    4.0029   -0.7982 H         1 <0>         0.0569
     37 H5         -3.7539    2.4639    0.9979 H         1 <0>         0.0642
     38 H6         -4.6337    1.4831   -0.2230 H         1 <0>         0.0653
     39 H7         -2.3049    0.3195    1.5384 H         1 <0>         0.0678
     40 H8         -3.4057   -0.4658    0.3560 H         1 <0>         0.0709
     41 H9         -1.2052   -1.6833    0.6924 H         1 <0>         0.0713
     42 H10        -1.5211   -1.1959   -1.0074 H         1 <0>         0.0794
     43 H11         1.6195   -2.1894    2.0911 H         1 <0>         0.4407
     44 H12         0.6525   -4.3263   -0.7568 H         1 <0>         0.1633
     45 H13         0.7618   -6.7847   -0.7654 H         1 <0>         0.1440
     46 H14         2.7676   -6.7183    3.0003 H         1 <0>         0.1475
     47 H15         4.0660   -1.1079   -0.0401 H         1 <0>         0.4516
     48 H16         7.1228    2.5906   -0.0417 H         1 <0>         0.1664
     49 H17         9.3210    1.1145   -0.0704 H         1 <0>         0.1869
     50 H18         8.6938   -2.2425   -1.0256 H         1 <0>         0.0985
     51 H19         9.8575   -1.3378    0.0011 H         1 <0>         0.1091
     52 H20         9.1752   -3.4730    1.0845 H         1 <0>         0.0838
     53 H21         7.4551   -2.9606    1.0111 H         1 <0>         0.0741
     54 H22         8.6188   -2.0559    2.0378 H         1 <0>         0.0645
     55 H23        -1.1445    3.0218   -0.7168 H         1 <0>         0.0825
     56 H24        -1.4053    2.6427    1.0195 H         1 <0>         0.0837
@<TRIPOS>BOND
     1    1    2 1
     2    1   34 1
     3    1   35 1
     4    1   36 1
     5    2    3 1
     6    2   37 1
     7    2   38 1
     8    3    4 1
     9    3   33 1
    10    3    5 1
    11    5    6 1
    12    5   39 1
    13    5   40 1
    14    6    7 1
    15    6   41 1
    16    6   42 1
    17    7   11 1
    18    7    8 2
    19    8    9 1
    20    8   33 1
    21    9   10 1
    22   10   11 2
    23   10   23 1
    24   11   12 1
    25   12   13 2
    26   12   14 am
    27   14   15 1
    28   14   43 1
    29   15   20 ar
    30   15   16 ar
    31   16   17 ar
    32   16   44 1
    33   17   18 ar
    34   17   45 1
    35   18   19 ar
    36   18   22 1
    37   19   20 ar
    38   19   46 1
    39   20   21 1
    40   23   24 am
    41   23   47 1
    42   24   25 2
    43   24   26 1
    44   26   30 2
    45   26   27 1
    46   27   28 2
    47   27   48 1
    48   28   29 1
    49   28   49 1
    50   29   30 1
    51   29   31 1
    52   31   32 1
    53   31   50 1
    54   31   51 1
    55   32   52 1
    56   32   53 1
    57   32   54 1
    58   33   55 1
    59   33   56 1
@<TRIPOS>MOLECULE
ZINC32528834
   65    68     0     0     0
SMALL
USER_CHARGES
(2S)-N-[4-(cyclohexylsulfamoyl)phenyl]-2-[(4,8-dimethyl-2-quinolyl)sulfanyl]propanamide
@<TRIPOS>ATOM
      1 C1          1.4027    5.9532   -0.0179 C.3       1 <0>        -0.1048
      2 C2          0.0883    5.2160   -0.0096 C.ar      1 <0>        -0.0653
      3 C3         -1.0839    5.9090   -0.0040 C.ar      1 <0>        -0.0997
      4 C4         -2.3089    5.2471    0.0041 C.ar      1 <0>        -0.1143
      5 C5         -2.3675    3.8858    0.0067 C.ar      1 <0>        -0.0974
      6 C6         -1.1793    3.1401    0.0010 C.ar      1 <0>        -0.1032
      7 C7          0.0680    3.8111   -0.0072 C.ar      1 <0>         0.1454
      8 N1          1.2051    3.1058   -0.0135 N.ar      1 <0>        -0.4818
      9 C8          1.1918    1.7880   -0.0123 C.ar      1 <0>         0.1372
     10 C9         -0.0114    1.0662   -0.0044 C.ar      1 <0>        -0.1579
     11 C10        -1.2005    1.7297   -0.0034 C.ar      1 <0>        -0.0051
     12 C11        -2.5058    0.9765   -0.0017 C.3       1 <0>        -0.1232
     13 S1          2.7207    0.9121   -0.0203 S.3       1 <0>         0.0404
     14 C12         3.8795    2.3025   -0.0287 C.3       1 <0>        -0.1055
     15 H1          3.8022    3.0591   -0.8234 H         1 <0>         0.1229
     16 C13         3.7453    3.0861    1.2785 C.3       1 <0>        -0.1499
     17 C14         5.2876    1.7820   -0.1602 C.2       1 <0>         0.5304
     18 O1          5.5362    0.6282    0.1190 O.2       1 <0>        -0.5003
     19 N2          6.2707    2.5987   -0.5882 N.am      1 <0>        -0.6839
     20 C15         7.5939    2.1447   -0.6183 C.ar      1 <0>         0.2083
     21 C16         8.6362    3.0196   -0.3413 C.ar      1 <0>        -0.1655
     22 C17         9.9408    2.5670   -0.3662 C.ar      1 <0>        -0.0004
     23 C18        10.2104    1.2468   -0.6773 C.ar      1 <0>        -0.6981
     24 C19         9.1751    0.3746   -0.9596 C.ar      1 <0>         0.0023
     25 C20         7.8680    0.8196   -0.9308 C.ar      1 <0>        -0.1452
     26 S2         11.8766    0.6750   -0.7146 S.o2      1 <0>         2.6923
     27 O2         12.6248    1.5494    0.1189 O.2       1 <0>        -0.9566
     28 O3         11.8292   -0.7286   -0.4982 O.2       1 <0>        -0.9592
     29 N3         12.4361    0.8974   -2.2573 N.pl3     1 <0>        -1.1196
     30 C21        12.5763    2.2520   -2.7974 C.3       1 <0>         0.1517
     31 C22        11.3202    2.6170   -3.5911 C.3       1 <0>        -0.1445
     32 C23        11.4666    4.0317   -4.1552 C.3       1 <0>        -0.1180
     33 C24        12.6867    4.0896   -5.0765 C.3       1 <0>        -0.1234
     34 C25        13.9428    3.7245   -4.2829 C.3       1 <0>        -0.1209
     35 C26        13.7964    2.3099   -3.7188 C.3       1 <0>        -0.1188
     36 H2          1.2152    7.0371   -0.0187 H         1 <0>         0.0652
     37 H3          1.9713    5.6788   -0.9187 H         1 <0>         0.0713
     38 H4          1.9810    5.6817    0.8776 H         1 <0>         0.0723
     39 H5         -1.0631    6.9888   -0.0055 H         1 <0>         0.1302
     40 H6         -3.2244    5.8201    0.0081 H         1 <0>         0.1288
     41 H7         -3.3236    3.3836    0.0126 H         1 <0>         0.1310
     42 H8          0.0055   -0.0136   -0.0036 H         1 <0>         0.1415
     43 H9         -2.3050   -0.1050   -0.0058 H         1 <0>         0.0768
     44 H10        -3.0853    1.2452   -0.8972 H         1 <0>         0.0817
     45 H11        -3.0797    1.2395    0.8991 H         1 <0>         0.0818
     46 H12         4.4495    3.9311    1.2734 H         1 <0>         0.0675
     47 H13         3.9724    2.4246    2.1275 H         1 <0>         0.0669
     48 H14         2.7174    3.4660    1.3744 H         1 <0>         0.0981
     49 H15         6.0328    3.6221   -0.9138 H         1 <0>         0.4413
     50 H16         8.4266    4.0518   -0.1027 H         1 <0>         0.1364
     51 H17        10.7515    3.2457   -0.1462 H         1 <0>         0.1425
     52 H18         9.3889   -0.6557   -1.2026 H         1 <0>         0.1431
     53 H19         7.0598    0.1378   -1.1507 H         1 <0>         0.1479
     54 H20        12.5426    0.0268   -2.9212 H         1 <0>         0.4405
     55 H21        12.7047    2.9308   -1.9414 H         1 <0>         0.0913
     56 H22        11.1892    1.9040   -4.4185 H         1 <0>         0.0717
     57 H23        10.4429    2.5753   -2.9288 H         1 <0>         0.0679
     58 H24        10.5635    4.2942   -4.7257 H         1 <0>         0.0651
     59 H25        11.5977    4.7446   -3.3278 H         1 <0>         0.0648
     60 H26        12.5556    3.3767   -5.9039 H         1 <0>         0.0634
     61 H27        12.7920    5.1066   -5.4821 H         1 <0>         0.0642
     62 H28        14.8200    3.7662   -4.9453 H         1 <0>         0.0683
     63 H29        14.0739    4.4374   -3.4555 H         1 <0>         0.0662
     64 H30        14.6995    2.0474   -3.1483 H         1 <0>         0.0732
     65 H31        13.6653    1.5970   -4.5462 H         1 <0>         0.0704
@<TRIPOS>BOND
     1    1    2 1
     2    1   36 1
     3    1   37 1
     4    1   38 1
     5    2    7 ar
     6    2    3 ar
     7    3    4 ar
     8    3   39 1
     9    4    5 ar
    10    4   40 1
    11    5    6 ar
    12    5   41 1
    13    6   11 ar
    14    6    7 ar
    15    7    8 ar
    16    8    9 ar
    17    9   10 ar
    18    9   13 1
    19   10   11 ar
    20   10   42 1
    21   11   12 1
    22   12   43 1
    23   12   44 1
    24   12   45 1
    25   13   14 1
    26   14   15 1
    27   14   16 1
    28   14   17 1
    29   16   46 1
    30   16   47 1
    31   16   48 1
    32   17   18 2
    33   17   19 am
    34   19   20 1
    35   19   49 1
    36   20   25 ar
    37   20   21 ar
    38   21   22 ar
    39   21   50 1
    40   22   23 ar
    41   22   51 1
    42   23   24 ar
    43   23   26 1
    44   24   25 ar
    45   24   52 1
    46   25   53 1
    47   26   27 2
    48   26   28 2
    49   26   29 1
    50   29   30 1
    51   29   54 1
    52   30   35 1
    53   30   31 1
    54   30   55 1
    55   31   32 1
    56   31   56 1
    57   31   57 1
    58   32   33 1
    59   32   58 1
    60   32   59 1
    61   33   34 1
    62   33   60 1
    63   33   61 1
    64   34   35 1
    65   34   62 1
    66   34   63 1
    67   35   64 1
    68   35   65 1
@<TRIPOS>MOLECULE
ZINC39486681
   74    78     0     0     0
SMALL
USER_CHARGES

@<TRIPOS>ATOM
      1 C1         -0.3985    1.0530    0.0771 C.3       1 <0>        -0.1816
      2 C2         -0.2559   -0.4382    0.3884 C.3       1 <0>         0.1604
      3 C3         -1.5635   -0.9936    0.9855 C.3       1 <0>         0.1023
      4 N1         -1.1697   -1.4600    2.3233 N.am      1 <0>        -0.5867
      5 C4          0.1375   -1.2290    2.5028 C.2       1 <0>         0.7054
      6 O1          0.7274   -1.5177    3.5261 O.2       1 <0>        -0.5571
      7 N2          0.7358   -0.6506    1.4532 N.am      1 <0>        -0.6148
      8 C5          2.1531   -0.2875    1.3779 C.3       1 <0>         0.1552
      9 C6          2.4146    0.9327    2.2632 C.3       1 <0>        -0.0718
     10 C7          3.9151    1.2371    2.2849 C.3       1 <0>        -0.1020
     11 C8          4.6627    0.0500    2.8964 C.3       1 <0>         0.0455
     12 N3          4.1736   -0.1880    4.2604 N.3       1 <0>        -0.3519
     13 C9          2.7452   -0.5288    4.2604 C.3       1 <0>         0.0292
     14 C10         1.9404    0.6411    3.6896 C.3       1 <0>        -0.0960
     15 O2          4.9604   -1.2266    4.9257 O.3       1 <0>        -0.4420
     16 C11         1.6547    2.1392    1.7084 C.3       1 <0>        -0.0972
     17 C12         2.2849    2.5736    0.3836 C.3       1 <0>        -0.1216
     18 C13         1.5250    3.7801   -0.1712 C.3       1 <0>        -0.1207
     19 C14         1.5984    4.9339    0.8309 C.3       1 <0>        -0.1190
     20 C15         0.9683    4.4995    2.1558 C.3       1 <0>        -0.1181
     21 C16         1.7281    3.2930    2.7106 C.3       1 <0>        -0.1156
     22 C17        -2.0261   -2.0523    3.2617 C.ar      1 <0>         0.1418
     23 C18        -2.1932   -3.4292    3.2788 C.ar      1 <0>        -0.0945
     24 C19        -3.0382   -4.0109    4.2049 C.ar      1 <0>        -0.1201
     25 C20        -3.7184   -3.2237    5.1156 C.ar      1 <0>        -0.0958
     26 C21        -3.5568   -1.8507    5.1044 C.ar      1 <0>        -0.1399
     27 C22        -2.7072   -1.2603    4.1830 C.ar      1 <0>         0.1172
     28 O3         -2.5429    0.0895    4.1745 O.3       1 <0>        -0.4869
     29 C23         0.1345   -1.2133   -0.8716 C.3       1 <0>        -0.0821
     30 C24        -0.9215   -1.0183   -1.9289 C.ar      1 <0>        -0.0812
     31 C25        -1.9955   -1.8856   -2.0013 C.ar      1 <0>        -0.1175
     32 C26        -2.9642   -1.7066   -2.9711 C.ar      1 <0>        -0.1155
     33 C27        -2.8591   -0.6601   -3.8681 C.ar      1 <0>        -0.1194
     34 C28        -1.7856    0.2077   -3.7951 C.ar      1 <0>        -0.1163
     35 C29        -0.8192    0.0313   -2.8226 C.ar      1 <0>        -0.1109
     36 H1          0.5770    1.4653   -0.1809 H         1 <0>         0.0928
     37 H2         -1.0822    1.1854   -0.7615 H         1 <0>         0.0758
     38 H3         -0.7920    1.5708    0.9519 H         1 <0>         0.0698
     39 H4         -2.3144   -0.2070    1.0602 H         1 <0>         0.0803
     40 H5         -1.9359   -1.8237    0.3852 H         1 <0>         0.0863
     41 H6          2.7613   -1.1237    1.7229 H         1 <0>         0.0755
     42 H7          2.4131   -0.0503    0.3463 H         1 <0>         0.0848
     43 H8          4.2673    1.4036    1.2669 H         1 <0>         0.0793
     44 H9          4.0968    2.1293    2.8840 H         1 <0>         0.0816
     45 H10         4.4917   -0.8388    2.2890 H         1 <0>         0.0396
     46 H11         5.7299    0.2694    2.9264 H         1 <0>         0.0819
     47 H12         2.5832   -1.4148    3.6466 H         1 <0>         0.0737
     48 H13         2.4198   -0.7297    5.2811 H         1 <0>         0.0703
     49 H14         2.0910    1.5239    4.3109 H         1 <0>         0.0630
     50 H15         0.8817    0.3818    3.6753 H         1 <0>         0.0880
     51 H16         4.6744   -1.4185    5.8293 H         1 <0>         0.3809
     52 H17         0.6122    1.8674    1.5431 H         1 <0>         0.0980
     53 H18         3.3274    2.8455    0.5490 H         1 <0>         0.0690
     54 H19         2.2326    1.7516   -0.3304 H         1 <0>         0.0611
     55 H20         1.9739    4.0896   -1.1151 H         1 <0>         0.0600
     56 H21         0.4825    3.5082   -0.3366 H         1 <0>         0.0620
     57 H22         2.6409    5.2058    0.9963 H         1 <0>         0.0608
     58 H23         1.0571    5.7934    0.4357 H         1 <0>         0.0584
     59 H24         1.0205    5.3215    2.8697 H         1 <0>         0.0592
     60 H25        -0.0743    4.2277    1.9904 H         1 <0>         0.0575
     61 H26         1.2792    2.9836    3.6544 H         1 <0>         0.0647
     62 H27         2.7706    3.5649    2.8760 H         1 <0>         0.0624
     63 H28        -1.6633   -4.0465    2.5684 H         1 <0>         0.1272
     64 H29        -3.1677   -5.0831    4.2171 H         1 <0>         0.1312
     65 H30        -4.3780   -3.6825    5.8373 H         1 <0>         0.1317
     66 H31        -4.0896   -1.2386    5.8171 H         1 <0>         0.1341
     67 H32        -3.1693    0.5584    3.6064 H         1 <0>         0.3863
     68 H33         1.0917   -0.8463   -1.2420 H         1 <0>         0.0831
     69 H34         0.2194   -2.2738   -0.6341 H         1 <0>         0.0796
     70 H35        -2.0776   -2.7032   -1.3005 H         1 <0>         0.1202
     71 H36        -3.8029   -2.3847   -3.0281 H         1 <0>         0.1224
     72 H37        -3.6156   -0.5208   -4.6263 H         1 <0>         0.1219
     73 H38        -1.7034    1.0251   -4.4962 H         1 <0>         0.1228
     74 H39         0.0176    0.7115   -2.7632 H         1 <0>         0.1225
@<TRIPOS>BOND
     1    1    2 1
     2    1   36 1
     3    1   37 1
     4    1   38 1
     5    2    7 1
     6    2    3 1
     7    2   29 1
     8    3    4 1
     9    3   39 1
    10    3   40 1
    11    4    5 am
    12    4   22 1
    13    5    6 2
    14    5    7 am
    15    7    8 1
    16    8    9 1
    17    8   41 1
    18    8   42 1
    19    9   14 1
    20    9   10 1
    21    9   16 1
    22   10   11 1
    23   10   43 1
    24   10   44 1
    25   11   12 1
    26   11   45 1
    27   11   46 1
    28   12   13 1
    29   12   15 1
    30   13   14 1
    31   13   47 1
    32   13   48 1
    33   14   49 1
    34   14   50 1
    35   15   51 1
    36   16   21 1
    37   16   17 1
    38   16   52 1
    39   17   18 1
    40   17   53 1
    41   17   54 1
    42   18   19 1
    43   18   55 1
    44   18   56 1
    45   19   20 1
    46   19   57 1
    47   19   58 1
    48   20   21 1
    49   20   59 1
    50   20   60 1
    51   21   61 1
    52   21   62 1
    53   22   27 ar
    54   22   23 ar
    55   23   24 ar
    56   23   63 1
    57   24   25 ar
    58   24   64 1
    59   25   26 ar
    60   25   65 1
    61   26   27 ar
    62   26   66 1
    63   27   28 1
    64   28   67 1
    65   29   30 1
    66   29   68 1
    67   29   69 1
    68   30   35 ar
    69   30   31 ar
    70   31   32 ar
    71   31   70 1
    72   32   33 ar
    73   32   71 1
    74   33   34 ar
    75   33   72 1
    76   34   35 ar
    77   34   73 1
    78   35   74 1
@<TRIPOS>MOLECULE
ZINC40868669
   60    65     0     0     0
SMALL
USER_CHARGES

@<TRIPOS>ATOM
      1 C1         -0.0280    1.5600   -0.2399 C.ar      1 <0>        -0.1186
      2 C2          1.1722    2.2007   -0.4846 C.ar      1 <0>        -0.1143
      3 C3          2.3574    1.4910   -0.4339 C.ar      1 <0>        -0.1030
      4 C4          2.3424    0.1407   -0.1381 C.ar      1 <0>        -0.0879
      5 C5          1.1423   -0.4997    0.1075 C.ar      1 <0>        -0.1189
      6 C6         -0.0431    0.2096    0.0554 C.ar      1 <0>        -0.1190
      7 C7          3.6344   -0.6331   -0.0838 C.3       1 <0>         0.2338
      8 H1          4.4476    0.0366    0.1958 H         1 <0>         0.1089
      9 C8          3.9190   -1.2311   -1.4375 C.ar      1 <0>        -0.1067
     10 C9          4.9328   -0.6942   -2.2478 C.ar      1 <0>        -0.0222
     11 C10         5.7011    0.4036   -1.8225 C.ar      1 <0>        -0.1152
     12 C11         6.6758    0.8979   -2.6335 C.ar      1 <0>        -0.1035
     13 C12         6.9251    0.3322   -3.8827 C.ar      1 <0>        -0.1156
     14 C13         6.2014   -0.7313   -4.3274 C.ar      1 <0>        -0.1003
     15 C14         5.1868   -1.2698   -3.5179 C.ar      1 <0>        -0.0584
     16 C15         4.4199   -2.3680   -3.9447 C.ar      1 <0>        -0.0803
     17 C16         3.4455   -2.8648   -3.1367 C.ar      1 <0>        -0.1400
     18 C17         3.1964   -2.3018   -1.8810 C.ar      1 <0>         0.1247
     19 O1          2.2196   -2.8240   -1.0938 O.3       1 <0>        -0.5010
     20 N1          3.5207   -1.7043    0.9091 N.am      1 <0>        -0.7116
     21 C18         3.7698   -1.4479    2.2086 C.2       1 <0>         0.5608
     22 O2          4.0889   -0.3278    2.5567 O.2       1 <0>        -0.5245
     23 C19         3.6550   -2.5290    3.2107 C.ar      1 <0>        -0.1138
     24 C20         3.2943   -3.8176    2.8127 C.ar      1 <0>        -0.0911
     25 C21         3.1879   -4.8245    3.7500 C.ar      1 <0>        -0.1029
     26 C22         3.4375   -4.5623    5.0844 C.ar      1 <0>        -0.1129
     27 C23         3.7966   -3.2833    5.4905 C.ar      1 <0>         0.1187
     28 C24         3.9123   -2.2662    4.5560 C.ar      1 <0>        -0.0807
     29 N2          4.0476   -3.0226    6.8447 N.am      1 <0>        -0.5197
     30 C25         4.3948   -1.8197    7.3367 C.2       1 <0>         0.5708
     31 O3          4.5381   -0.8030    6.6879 O.2       1 <0>        -0.4375
     32 C26         4.5726   -1.9422    8.7989 C.ar      1 <0>        -0.1373
     33 C27         4.9188   -1.0593    9.8090 C.ar      1 <0>        -0.0401
     34 C28         4.9993   -1.5095   11.1176 C.ar      1 <0>        -0.0911
     35 C29         4.7366   -2.8323   11.4209 C.ar      1 <0>        -0.0926
     36 C30         4.3890   -3.7270   10.4208 C.ar      1 <0>        -0.0395
     37 C31         4.3046   -3.2912    9.1082 C.ar      1 <0>        -0.1400
     38 C32         3.9675   -3.9412    7.8243 C.2       1 <0>         0.5773
     39 O4          3.6708   -5.1097    7.6777 O.2       1 <0>        -0.4482
     40 H2         -0.9536    2.1154   -0.2751 H         1 <0>         0.1223
     41 H3          1.1840    3.2556   -0.7157 H         1 <0>         0.1239
     42 H4          3.2951    1.9914   -0.6258 H         1 <0>         0.1215
     43 H5          1.1305   -1.5547    0.3383 H         1 <0>         0.1274
     44 H6         -0.9807   -0.2908    0.2469 H         1 <0>         0.1231
     45 H7          5.5186    0.8525   -0.8574 H         1 <0>         0.1299
     46 H8          7.2646    1.7413   -2.3044 H         1 <0>         0.1269
     47 H9          7.7040    0.7441   -4.5072 H         1 <0>         0.1262
     48 H10         6.4057   -1.1589   -5.2979 H         1 <0>         0.1302
     49 H11         4.6037   -2.8152   -4.9104 H         1 <0>         0.1349
     50 H12         2.8580   -3.7084   -3.4679 H         1 <0>         0.1340
     51 H13         1.3422   -2.4516   -1.2567 H         1 <0>         0.3935
     52 H14         3.2660   -2.5981    0.6313 H         1 <0>         0.4104
     53 H15         3.0982   -4.0262    1.7713 H         1 <0>         0.1335
     54 H16         2.9084   -5.8207    3.4404 H         1 <0>         0.1408
     55 H17         3.3526   -5.3545    5.8135 H         1 <0>         0.1608
     56 H18         4.1964   -1.2725    4.8692 H         1 <0>         0.1695
     57 H19         5.1255   -0.0248    9.5778 H         1 <0>         0.1462
     58 H20         5.2695   -0.8221   11.9055 H         1 <0>         0.1463
     59 H21         4.8029   -3.1711   12.4442 H         1 <0>         0.1461
     60 H22         4.1852   -4.7594   10.6637 H         1 <0>         0.1458
@<TRIPOS>BOND
     1    1    6 ar
     2    1    2 ar
     3    1   40 1
     4    2    3 ar
     5    2   41 1
     6    3    4 ar
     7    3   42 1
     8    4    5 ar
     9    4    7 1
    10    5    6 ar
    11    5   43 1
    12    6   44 1
    13    7    8 1
    14    7    9 1
    15    7   20 1
    16    9   18 ar
    17    9   10 ar
    18   10   15 ar
    19   10   11 ar
    20   11   12 ar
    21   11   45 1
    22   12   13 ar
    23   12   46 1
    24   13   14 ar
    25   13   47 1
    26   14   15 ar
    27   14   48 1
    28   15   16 ar
    29   16   17 ar
    30   16   49 1
    31   17   18 ar
    32   17   50 1
    33   18   19 1
    34   19   51 1
    35   20   21 am
    36   20   52 1
    37   21   22 2
    38   21   23 1
    39   23   28 ar
    40   23   24 ar
    41   24   25 ar
    42   24   53 1
    43   25   26 ar
    44   25   54 1
    45   26   27 ar
    46   26   55 1
    47   27   28 ar
    48   27   29 1
    49   28   56 1
    50   29   38 am
    51   29   30 am
    52   30   31 2
    53   30   32 1
    54   32   37 ar
    55   32   33 ar
    56   33   34 ar
    57   33   57 1
    58   34   35 ar
    59   34   58 1
    60   35   36 ar
    61   35   59 1
    62   36   37 ar
    63   36   60 1
    64   37   38 1
    65   38   39 2
@<TRIPOS>MOLECULE
ZINC01217511
   62    63     0     0     0
SMALL
USER_CHARGES
2,4,6-triisopropyl-N-[(4-sulfamoylphenyl)methyl]benzenesulfonamide
@<TRIPOS>ATOM
      1 C1         -0.8221   11.0594   -0.0344 C.3       1 <0>        -0.1449
      2 C2         -1.9396   10.0208    0.0817 C.3       1 <0>        -0.0656
      3 C3         -2.7808   10.0318   -1.1963 C.3       1 <0>        -0.1461
      4 C4         -1.3364    8.6533    0.2743 C.ar      1 <0>        -0.0088
      5 C5         -1.6278    7.9232    1.4114 C.ar      1 <0>        -0.1468
      6 C6         -1.0741    6.6690    1.5883 C.ar      1 <0>         0.0361
      7 C7         -0.2297    6.1446    0.6277 C.ar      1 <0>        -0.6854
      8 C8          0.0656    6.8766   -0.5071 C.ar      1 <0>         0.0401
      9 C9         -0.4912    8.1292   -0.6858 C.ar      1 <0>        -0.1405
     10 C10         0.9910    6.3074   -1.5514 C.3       1 <0>        -0.1006
     11 C11         0.2000    6.0116   -2.8272 C.3       1 <0>        -0.1343
     12 C12         2.0962    7.3195   -1.8597 C.3       1 <0>        -0.1465
     13 S1          0.4761    4.5459    0.8532 S.o2      1 <0>         2.6859
     14 O1          0.6070    3.9735   -0.4409 O.2       1 <0>        -0.9469
     15 O2         -0.2628    3.9187    1.8924 O.2       1 <0>        -0.9442
     16 N1          2.0123    4.7659    1.4310 N.pl3     1 <0>        -1.1156
     17 C13         2.2194    5.3692    2.7499 C.3       1 <0>         0.1504
     18 C14         3.6383    5.1266    3.1960 C.ar      1 <0>        -0.0424
     19 C15         4.6278    6.0385    2.8794 C.ar      1 <0>        -0.1231
     20 C16         5.9293    5.8162    3.2889 C.ar      1 <0>        -0.0219
     21 C17         6.2412    4.6821    4.0151 C.ar      1 <0>        -0.6709
     22 C18         5.2515    3.7705    4.3322 C.ar      1 <0>        -0.0161
     23 C19         3.9499    3.9932    3.9234 C.ar      1 <0>        -0.1208
     24 S2          7.9002    4.3982    4.5362 S.o2      1 <0>         2.7005
     25 O3          8.0306    2.9966    4.7309 O.2       1 <0>        -0.9599
     26 O4          8.7357    5.1245    3.6452 O.2       1 <0>        -0.9584
     27 N2          8.0727    5.1010    6.0257 N.pl3     1 <0>        -1.2474
     28 C20        -1.3915    5.8733    2.8281 C.3       1 <0>        -0.0940
     29 C21        -1.6571    6.8288    3.9932 C.3       1 <0>        -0.1504
     30 C22        -2.6333    5.0149    2.5792 C.3       1 <0>        -0.1288
     31 H1         -0.1890   10.8181   -0.8882 H         1 <0>         0.0584
     32 H2         -1.2585   12.0485   -0.1737 H         1 <0>         0.0627
     33 H3         -0.2229   11.0516    0.8761 H         1 <0>         0.0570
     34 H4         -2.5727   10.2622    0.9355 H         1 <0>         0.0823
     35 H5         -3.2171   11.0208   -1.3356 H         1 <0>         0.0629
     36 H6         -2.1476    9.7904   -2.0501 H         1 <0>         0.0587
     37 H7         -3.5769    9.2918   -1.1136 H         1 <0>         0.0578
     38 H8         -2.2878    8.3329    2.1617 H         1 <0>         0.1330
     39 H9         -0.2632    8.6998   -1.5740 H         1 <0>         0.1299
     40 H10         1.4366    5.3853   -1.1782 H         1 <0>         0.1064
     41 H11         0.8693    5.5999   -3.5825 H         1 <0>         0.0645
     42 H12        -0.5874    5.2906   -2.6076 H         1 <0>         0.0619
     43 H13        -0.2456    6.9337   -3.2004 H         1 <0>         0.0533
     44 H14         2.6598    7.5302   -0.9508 H         1 <0>         0.0559
     45 H15         2.7656    6.9078   -2.6150 H         1 <0>         0.0656
     46 H16         1.6506    8.2416   -2.2329 H         1 <0>         0.0586
     47 H17         2.7750    4.4953    0.8963 H         1 <0>         0.4216
     48 H18         1.5315    4.9207    3.4666 H         1 <0>         0.0960
     49 H19         2.0352    6.4419    2.6917 H         1 <0>         0.0817
     50 H20         4.3833    6.9268    2.3159 H         1 <0>         0.1376
     51 H21         6.7024    6.5284    3.0412 H         1 <0>         0.1461
     52 H22         5.4953    2.8840    4.8989 H         1 <0>         0.1468
     53 H23         3.1768    3.2808    4.1708 H         1 <0>         0.1401
     54 H24         8.6979    4.7297    6.6677 H         1 <0>         0.4229
     55 H25         7.5485    5.8839    6.2562 H         1 <0>         0.4174
     56 H26        -0.5471    5.2287    3.0721 H         1 <0>         0.1159
     57 H27        -2.5015    7.4734    3.7492 H         1 <0>         0.0582
     58 H28        -1.8866    6.2532    4.8900 H         1 <0>         0.0644
     59 H29        -0.7724    7.4403    4.1705 H         1 <0>         0.0558
     60 H30        -2.4440    4.3342    1.7492 H         1 <0>         0.0618
     61 H31        -2.8628    4.4394    3.4760 H         1 <0>         0.0644
     62 H32        -3.4776    5.6596    2.3352 H         1 <0>         0.0480
@<TRIPOS>BOND
     1    1    2 1
     2    1   31 1
     3    1   32 1
     4    1   33 1
     5    2    3 1
     6    2    4 1
     7    2   34 1
     8    3   35 1
     9    3   36 1
    10    3   37 1
    11    4    9 ar
    12    4    5 ar
    13    5    6 ar
    14    5   38 1
    15    6    7 ar
    16    6   28 1
    17    7    8 ar
    18    7   13 1
    19    8    9 ar
    20    8   10 1
    21    9   39 1
    22   10   11 1
    23   10   12 1
    24   10   40 1
    25   11   41 1
    26   11   42 1
    27   11   43 1
    28   12   44 1
    29   12   45 1
    30   12   46 1
    31   13   14 2
    32   13   15 2
    33   13   16 1
    34   16   17 1
    35   16   47 1
    36   17   18 1
    37   17   48 1
    38   17   49 1
    39   18   23 ar
    40   18   19 ar
    41   19   20 ar
    42   19   50 1
    43   20   21 ar
    44   20   51 1
    45   21   22 ar
    46   21   24 1
    47   22   23 ar
    48   22   52 1
    49   23   53 1
    50   24   25 2
    51   24   26 2
    52   24   27 1
    53   27   54 1
    54   27   55 1
    55   28   29 1
    56   28   30 1
    57   28   56 1
    58   29   57 1
    59   29   58 1
    60   29   59 1
    61   30   60 1
    62   30   61 1
    63   30   62 1
@<TRIPOS>MOLECULE
ZINC11807340
   45    48     0     0     0
SMALL
USER_CHARGES
2-[[4-amino-5-(2,5-dichlorophenyl)-1,2,4-triazol-3-yl]sulfanyl]-N-cyclopropyl-2-(4-fluorophenyl)-acetamide
@<TRIPOS>ATOM
      1 C1         -0.0567    1.2326    0.1041 C.ar      1 <0>        -0.0596
      2 C2          1.0953    1.9922    0.1795 C.ar      1 <0>        -0.1458
      3 C3          1.0096    3.3679    0.3108 C.ar      1 <0>         0.1134
      4 C4         -0.2306    3.9809    0.3665 C.ar      1 <0>        -0.1441
      5 C5         -1.3813    3.2194    0.2909 C.ar      1 <0>        -0.0819
      6 C6         -1.2944    1.8464    0.1545 C.ar      1 <0>        -0.0899
      7 C7         -2.5500    1.0175    0.0664 C.3       1 <0>        -0.0682
      8 H1         -2.2987    0.0122   -0.2714 H         1 <0>         0.1463
      9 C8         -3.1993    0.9435    1.4244 C.2       1 <0>         0.5322
     10 O1         -3.4152   -0.1350    1.9353 O.2       1 <0>        -0.4907
     11 N1         -3.5401    2.0759    2.0710 N.am      1 <0>        -0.6973
     12 C9         -4.0738    2.0090    3.4337 C.3       1 <0>         0.0825
     13 C10        -5.2799    2.8904    3.7640 C.3       1 <0>        -0.1926
     14 C11        -3.8995    3.2424    4.3220 C.3       1 <0>        -0.1866
     15 S1         -3.6953    1.7804   -1.1092 S.3       1 <0>         0.0780
     16 C12        -4.9685    0.5625   -1.1303 C.2       1 <0>         0.1728
     17 N2         -4.9869   -0.5580   -0.4436 N.2       1 <0>        -0.2554
     18 N3         -6.0642   -1.2119   -0.6950 N.2       1 <0>        -0.2232
     19 C13        -6.7997   -0.5496   -1.5573 C.2       1 <0>         0.1819
     20 N4         -6.1228    0.6098   -1.8587 N.pl3     1 <0>        -0.2985
     21 N5         -6.5212    1.6004   -2.7107 N.3       1 <0>        -0.5827
     22 C14        -8.1103   -0.9678   -2.0982 C.ar      1 <0>        -0.0049
     23 C15        -8.3180   -1.0100   -3.4778 C.ar      1 <0>        -0.0847
     24 C16        -9.5443   -1.4014   -3.9764 C.ar      1 <0>        -0.0308
     25 C17       -10.5674   -1.7518   -3.1110 C.ar      1 <0>        -0.0772
     26 C18       -10.3682   -1.7121   -1.7431 C.ar      1 <0>        -0.0931
     27 C19        -9.1443   -1.3279   -1.2312 C.ar      1 <0>         0.0038
     28 Cl1        -8.8939   -1.2862    0.4861 Cl        1 <0>        -0.0259
     29 Cl2        -9.8050   -1.4540   -5.6919 Cl        1 <0>        -0.0455
     30 F1          2.1352    4.1114    0.3841 F         1 <0>        -0.1334
     31 H2          0.0099    0.1596    0.0013 H         1 <0>         0.1424
     32 H3          2.0622    1.5129    0.1356 H         1 <0>         0.1443
     33 H4         -0.2987    5.0539    0.4692 H         1 <0>         0.1437
     34 H5         -2.3488    3.6974    0.3340 H         1 <0>         0.1346
     35 H6         -3.4319    2.9352    1.6341 H         1 <0>         0.3991
     36 H7         -4.0179    1.0316    3.9130 H         1 <0>         0.1386
     37 H8         -5.6763    3.5201    2.9675 H         1 <0>         0.0966
     38 H9         -6.0180    2.4930    4.4607 H         1 <0>         0.1025
     39 H10        -3.7293    3.0765    5.3858 H         1 <0>         0.1052
     40 H11        -3.3877    4.1037    3.8926 H         1 <0>         0.0978
     41 H12        -6.2698    1.3811   -3.6630 H         1 <0>         0.3687
     42 H13        -7.5123    1.7711   -2.6286 H         1 <0>         0.3788
     43 H14        -7.5211   -0.7367   -4.1536 H         1 <0>         0.1403
     44 H15       -11.5248   -2.0576   -3.5062 H         1 <0>         0.1528
     45 H16       -11.1700   -1.9866   -1.0736 H         1 <0>         0.1555
@<TRIPOS>BOND
     1    1    6 ar
     2    1    2 ar
     3    1   31 1
     4    2    3 ar
     5    2   32 1
     6    3    4 ar
     7    3   30 1
     8    4    5 ar
     9    4   33 1
    10    5    6 ar
    11    5   34 1
    12    6    7 1
    13    7    8 1
    14    7    9 1
    15    7   15 1
    16    9   10 2
    17    9   11 am
    18   11   12 1
    19   11   35 1
    20   12   14 1
    21   12   13 1
    22   12   36 1
    23   13   14 1
    24   13   37 1
    25   13   38 1
    26   14   39 1
    27   14   40 1
    28   15   16 1
    29   16   20 1
    30   16   17 2
    31   17   18 1
    32   18   19 2
    33   19   20 1
    34   19   22 1
    35   20   21 1
    36   21   41 1
    37   21   42 1
    38   22   27 ar
    39   22   23 ar
    40   23   24 ar
    41   23   43 1
    42   24   25 ar
    43   24   29 1
    44   25   26 ar
    45   25   44 1
    46   26   27 ar
    47   26   45 1
    48   27   28 1
@<TRIPOS>MOLECULE
ZINC18342797
   52    55     0     0     0
SMALL
USER_CHARGES
2-[(4-aminoquinazolin-2-yl)methylsulfanyl]-6-methyl-5-[(2R)-2-methylbutyl]-3H-thieno[4,5-e]pyrimidin-4-one
@<TRIPOS>ATOM
      1 C1        -10.8574   -2.7538   -3.2968 C.3       1 <0>        -0.1531
      2 C2         -9.8953   -3.8704   -2.8862 C.3       1 <0>        -0.1175
      3 C3         -8.9638   -3.3614   -1.7843 C.3       1 <0>        -0.0771
      4 H1         -8.4599   -2.4564   -2.1238 H         1 <0>         0.0675
      5 C4         -9.7812   -3.0496   -0.5291 C.3       1 <0>        -0.1575
      6 C5         -7.9221   -4.4344   -1.4611 C.3       1 <0>        -0.0680
      7 C6         -6.9313   -3.8888   -0.4653 C.2       1 <0>        -0.0497
      8 C7         -7.1476   -4.0253    0.8512 C.2       1 <0>        -0.1583
      9 S1         -5.7285   -3.2369    1.5880 S.3       1 <0>         0.1371
     10 C8         -4.8852   -2.7466    0.1057 C.2       1 <0>         0.1173
     11 C9         -5.7305   -3.2094   -0.9205 C.2       1 <0>        -0.2459
     12 C10        -5.2895   -2.9471   -2.2558 C.2       1 <0>         0.5629
     13 O1         -5.9566   -3.3108   -3.2090 O.2       1 <0>        -0.5133
     14 N1         -4.1311   -2.2892   -2.4460 N.am      1 <0>        -0.6203
     15 H2         -3.8308   -2.1060   -3.3499 H         1 <0>         0.4232
     16 C11        -3.3682   -1.8793   -1.3911 C.2       1 <0>         0.3745
     17 N2         -3.7506   -2.1073   -0.1509 N.2       1 <0>        -0.4963
     18 S2         -1.8554   -1.0274   -1.6916 S.3       1 <0>         0.0523
     19 C12        -1.3122   -0.7414    0.0112 C.3       1 <0>        -0.0359
     20 C13         0.0021   -0.0041    0.0020 C.ar      1 <0>         0.3736
     21 N3          1.1122   -0.7031   -0.0124 N.ar      1 <0>        -0.5302
     22 C14         2.3035   -0.0871   -0.0205 C.ar      1 <0>         0.1884
     23 C15         3.5090   -0.8019   -0.0369 C.ar      1 <0>        -0.1053
     24 C16         4.6924   -0.1254   -0.0455 C.ar      1 <0>        -0.0725
     25 C17         4.7235    1.2664   -0.0387 C.ar      1 <0>        -0.1277
     26 C18         3.5692    1.9926   -0.0232 C.ar      1 <0>        -0.0719
     27 C19         2.3375    1.3287   -0.0131 C.ar      1 <0>        -0.1956
     28 C20         1.1057    2.0273    0.0024 C.ar      1 <0>         0.4831
     29 N4         -0.0159    1.3191    0.0093 N.ar      1 <0>        -0.5862
     30 N5          1.0731    3.4053    0.0097 N.pl3     1 <0>        -0.8165
     31 C21        -8.3121   -4.6865    1.5424 C.3       1 <0>        -0.0813
     32 H3        -11.4487   -2.4481   -2.4336 H         1 <0>         0.0553
     33 H4        -10.2879   -1.9015   -3.6674 H         1 <0>         0.0517
     34 H5        -11.5210   -3.1164   -4.0818 H         1 <0>         0.0525
     35 H6         -9.3040   -4.1761   -3.7494 H         1 <0>         0.0635
     36 H7        -10.4647   -4.7227   -2.5156 H         1 <0>         0.0607
     37 H8         -9.1176   -2.6870    0.2559 H         1 <0>         0.0594
     38 H9        -10.5233   -2.2852   -0.7594 H         1 <0>         0.0557
     39 H10       -10.2851   -3.9546   -0.1897 H         1 <0>         0.0581
     40 H11        -7.3998   -4.7204   -2.3740 H         1 <0>         0.0883
     41 H12        -8.4191   -5.3075   -1.0381 H         1 <0>         0.0717
     42 H13        -1.1886   -1.6981    0.5187 H         1 <0>         0.1323
     43 H14        -2.0593   -0.1457    0.5357 H         1 <0>         0.1309
     44 H15         3.5004   -1.8818   -0.0424 H         1 <0>         0.1428
     45 H16         5.6204   -0.6777   -0.0582 H         1 <0>         0.1360
     46 H17         5.6746    1.7779   -0.0461 H         1 <0>         0.1328
     47 H18         3.6055    3.0720   -0.0180 H         1 <0>         0.1282
     48 H19         0.2219    3.8703    0.0200 H         1 <0>         0.4153
     49 H20         1.9014    3.9101    0.0045 H         1 <0>         0.4147
     50 H21        -8.1772   -4.6232    2.6222 H         1 <0>         0.0731
     51 H22        -9.2360   -4.1811    1.2614 H         1 <0>         0.0952
     52 H23        -8.3652   -5.7334    1.2436 H         1 <0>         0.0818
@<TRIPOS>BOND
     1    1    2 1
     2    1   32 1
     3    1   33 1
     4    1   34 1
     5    2    3 1
     6    2   35 1
     7    2   36 1
     8    3    4 1
     9    3    5 1
    10    3    6 1
    11    5   37 1
    12    5   38 1
    13    5   39 1
    14    6    7 1
    15    6   40 1
    16    6   41 1
    17    7   11 1
    18    7    8 2
    19    8    9 1
    20    8   31 1
    21    9   10 1
    22   10   17 1
    23   10   11 2
    24   11   12 1
    25   12   13 2
    26   12   14 am
    27   14   15 1
    28   14   16 1
    29   16   17 2
    30   16   18 1
    31   18   19 1
    32   19   20 1
    33   19   42 1
    34   19   43 1
    35   20   29 ar
    36   20   21 ar
    37   21   22 ar
    38   22   27 ar
    39   22   23 ar
    40   23   24 ar
    41   23   44 1
    42   24   25 ar
    43   24   45 1
    44   25   26 ar
    45   25   46 1
    46   26   27 ar
    47   26   47 1
    48   27   28 ar
    49   28   29 ar
    50   28   30 1
    51   30   48 1
    52   30   49 1
    53   31   50 1
    54   31   51 1
    55   31   52 1
@<TRIPOS>MOLECULE
ZINC33154866
   46    48     0     0     0
SMALL
USER_CHARGES
N'-[2-chloro-5-(trifluoromethyl)phenyl]-N-(1H-indol-3-ylmethyleneamino)butanediamide
@<TRIPOS>ATOM
      1 C1          0.2621   -4.3943   -1.4578 C.ar      1 <0>        -0.1385
      2 C2          1.5665   -4.1989   -1.0258 C.ar      1 <0>        -0.0957
      3 C3          1.9248   -3.0377   -0.3774 C.ar      1 <0>        -0.1267
      4 C4          0.9741   -2.0471   -0.1513 C.ar      1 <0>         0.0879
      5 C5         -0.3454   -2.2459   -0.5897 C.ar      1 <0>        -0.0877
      6 C6         -0.6934   -3.4259   -1.2440 C.ar      1 <0>        -0.0721
      7 C7         -1.0887   -1.0333   -0.2039 C.2       1 <0>        -0.1933
      8 C8         -0.1987   -0.2143    0.4190 C.2       1 <0>         0.0820
      9 N1          1.0269   -0.8094    0.4537 N.pl3     1 <0>        -0.5932
     10 H1          1.9746   -0.4433    0.8753 H         1 <0>         0.4498
     11 C9         -2.5146   -0.7611   -0.4460 C.2       1 <0>         0.1569
     12 N2         -2.9897    0.4327   -0.2546 N.2       1 <0>        -0.2470
     13 N3         -2.1286    1.5378   -0.2564 N.am      1 <0>        -0.5990
     14 C10        -2.5962    2.7570    0.0775 C.2       1 <0>         0.5266
     15 O1         -3.7628    2.8974    0.3798 O.2       1 <0>        -0.5094
     16 C11        -1.6699    3.9457    0.0755 C.3       1 <0>        -0.1238
     17 C12        -2.4462    5.1978    0.4887 C.3       1 <0>        -0.1250
     18 C13        -1.5200    6.3866    0.4867 C.2       1 <0>         0.5215
     19 O2         -0.3537    6.2462    0.1845 O.2       1 <0>        -0.5201
     20 N4         -1.9876    7.6057    0.8206 N.am      1 <0>        -0.6819
     21 C14        -1.1071    8.6891    0.9228 C.ar      1 <0>         0.1643
     22 C15         0.0484    8.7216    0.1536 C.ar      1 <0>        -0.0740
     23 C16         0.9131    9.7940    0.2534 C.ar      1 <0>        -0.1591
     24 C17         0.6343   10.8307    1.1253 C.ar      1 <0>        -0.0800
     25 C18        -0.5126   10.7997    1.8969 C.ar      1 <0>        -0.0887
     26 C19        -1.3846    9.7318    1.7984 C.ar      1 <0>        -0.0419
     27 Cl1        -2.8249    9.6935    2.7669 Cl        1 <0>        -0.0464
     28 C20         2.1649    9.8318   -0.5847 C.3       1 <0>         0.5112
     29 F1          2.8768   11.0037   -0.3071 F         1 <0>        -0.1744
     30 F2          2.9605    8.7207   -0.2850 F         1 <0>        -0.1716
     31 F3          1.8196    9.8060   -1.9402 F         1 <0>        -0.1735
     32 H2         -0.0047   -5.3099   -1.9646 H         1 <0>         0.1266
     33 H3          2.3077   -4.9651   -1.1992 H         1 <0>         0.1279
     34 H4          2.9426   -2.8961   -0.0452 H         1 <0>         0.1225
     35 H5         -1.7086   -3.5822   -1.5778 H         1 <0>         0.1264
     36 H6         -0.4285    0.7601    0.8242 H         1 <0>         0.1746
     37 H7         -3.1781   -1.5686   -0.7891 H         1 <0>         0.1870
     38 H8         -1.0709    1.4104   -0.5303 H         1 <0>         0.4041
     39 H9         -0.8489    3.7719    0.7866 H         1 <0>         0.1051
     40 H10        -1.2567    4.0869   -0.9341 H         1 <0>         0.1086
     41 H11        -3.2673    5.3715   -0.2224 H         1 <0>         0.1129
     42 H12        -2.8593    5.0566    1.4983 H         1 <0>         0.1121
     43 H13        -3.0611    7.7493    1.0128 H         1 <0>         0.4447
     44 H14         0.2692    7.9106   -0.5246 H         1 <0>         0.1684
     45 H15         1.3142   11.6661    1.2040 H         1 <0>         0.1504
     46 H16        -0.7271   11.6105    2.5773 H         1 <0>         0.1515
@<TRIPOS>BOND
     1    1    6 ar
     2    1    2 ar
     3    1   32 1
     4    2    3 ar
     5    2   33 1
     6    3    4 ar
     7    3   34 1
     8    4    9 1
     9    4    5 ar
    10    5    6 ar
    11    5    7 1
    12    6   35 1
    13    7    8 2
    14    7   11 1
    15    8    9 1
    16    8   36 1
    17    9   10 1
    18   11   12 2
    19   11   37 1
    20   12   13 1
    21   13   14 am
    22   13   38 1
    23   14   15 2
    24   14   16 1
    25   16   17 1
    26   16   39 1
    27   16   40 1
    28   17   18 1
    29   17   41 1
    30   17   42 1
    31   18   19 2
    32   18   20 am
    33   20   21 1
    34   20   43 1
    35   21   26 ar
    36   21   22 ar
    37   22   23 ar
    38   22   44 1
    39   23   24 ar
    40   23   28 1
    41   24   25 ar
    42   24   45 1
    43   25   26 ar
    44   25   46 1
    45   26   27 1
    46   28   29 1
    47   28   30 1
    48   28   31 1
@<TRIPOS>MOLECULE
ZINC21080012
   44    46     0     0     0
SMALL
USER_CHARGES

@<TRIPOS>ATOM
      1 C1         -0.0167    1.3781    0.0096 C.ar      1 <0>        -0.1235
      2 C2          1.1709    2.0855    0.0021 C.ar      1 <0>        -0.1184
      3 C3          2.3773    1.4107   -0.0130 C.ar      1 <0>        -0.1164
      4 C4          2.3960    0.0285   -0.0201 C.ar      1 <0>        -0.0841
      5 C5          1.2084   -0.6789   -0.0117 C.ar      1 <0>        -0.1164
      6 C6          0.0021   -0.0041    0.0020 C.ar      1 <0>        -0.1183
      7 C7          3.7112   -0.7071   -0.0376 C.3       1 <0>        -0.0739
      8 C8          4.1714   -0.9633    1.3989 C.3       1 <0>        -0.0989
      9 C9          5.5066   -1.7102    1.3812 C.3       1 <0>        -0.0985
     10 S1          6.0522   -2.0139    3.0843 S.3       1 <0>        -0.0086
     11 C10         7.5811   -2.8692    2.8960 C.2       1 <0>         0.2067
     12 N1          8.3785   -3.3207    3.9090 N.pl3     1 <0>        -0.6105
     13 H1          8.2024   -3.2269    4.8583 H         1 <0>         0.4231
     14 C11         9.4681   -3.9289    3.3501 C.2       1 <0>         0.4971
     15 N2          9.3485   -3.8559    2.0466 N.2       1 <0>        -0.3131
     16 N3          8.1504   -3.1892    1.7585 N.2       1 <0>        -0.3024
     17 N4         10.5166   -4.5188    4.0410 N.pl3     1 <0>        -0.5544
     18 N5         11.5749   -5.1088    3.3378 N.2       1 <0>        -0.1703
     19 C12        12.5564   -5.6611    3.9846 C.2       1 <0>         0.0911
     20 C13        13.6697   -6.2817    3.2449 C.ar      1 <0>        -0.0747
     21 C14        14.7244   -6.8818    3.9367 C.ar      1 <0>        -0.0470
     22 C15        15.7637   -7.4611    3.2378 C.ar      1 <0>        -0.1078
     23 C16        15.7654   -7.4495    1.8527 C.ar      1 <0>        -0.0579
     24 C17        14.7269   -6.8586    1.1574 C.ar      1 <0>        -0.1451
     25 C18        13.6731   -6.2782    1.8434 C.ar      1 <0>         0.1643
     26 O1         12.6494   -5.7027    1.1605 O.3       1 <0>        -0.4686
     27 Br1        17.1914   -8.2734    4.1746 Br        1 <0>        -0.0408
     28 H2         -0.9591    1.9053    0.0259 H         1 <0>         0.1211
     29 H3          1.1563    3.1654    0.0076 H         1 <0>         0.1219
     30 H4          3.3051    1.9634   -0.0196 H         1 <0>         0.1220
     31 H5          1.2231   -1.7588   -0.0176 H         1 <0>         0.1221
     32 H6         -0.9258   -0.5567    0.0082 H         1 <0>         0.1219
     33 H7          3.5884   -1.6586   -0.5549 H         1 <0>         0.0786
     34 H8          4.4573   -0.1052   -0.5563 H         1 <0>         0.0785
     35 H9          4.2941   -0.0118    1.9163 H         1 <0>         0.0774
     36 H10         3.4252   -1.5652    1.9176 H         1 <0>         0.0774
     37 H11         5.3838   -2.6617    0.8639 H         1 <0>         0.0998
     38 H12         6.2527   -1.1082    0.8625 H         1 <0>         0.0998
     39 H13        10.5169   -4.5227    5.0110 H         1 <0>         0.3962
     40 H14        12.5568   -5.6654    5.0646 H         1 <0>         0.1253
     41 H15        14.7266   -6.8920    5.0166 H         1 <0>         0.1422
     42 H16        16.5827   -7.9044    1.3129 H         1 <0>         0.1405
     43 H17        14.7354   -6.8532    0.0775 H         1 <0>         0.1441
     44 H18        12.7844   -4.7652    0.9657 H         1 <0>         0.3981
@<TRIPOS>BOND
     1    1    6 ar
     2    1    2 ar
     3    1   28 1
     4    2    3 ar
     5    2   29 1
     6    3    4 ar
     7    3   30 1
     8    4    5 ar
     9    4    7 1
    10    5    6 ar
    11    5   31 1
    12    6   32 1
    13    7    8 1
    14    7   33 1
    15    7   34 1
    16    8    9 1
    17    8   35 1
    18    8   36 1
    19    9   10 1
    20    9   37 1
    21    9   38 1
    22   10   11 1
    23   11   16 2
    24   11   12 1
    25   12   13 1
    26   12   14 1
    27   14   15 2
    28   14   17 1
    29   15   16 1
    30   17   18 1
    31   17   39 1
    32   18   19 2
    33   19   20 1
    34   19   40 1
    35   20   25 ar
    36   20   21 ar
    37   21   22 ar
    38   21   41 1
    39   22   23 ar
    40   22   27 1
    41   23   24 ar
    42   23   42 1
    43   24   25 ar
    44   24   43 1
    45   25   26 1
    46   26   44 1
@<TRIPOS>MOLECULE
ZINC00694476
   56    58     0     0     0
SMALL
USER_CHARGES
2-[(11-ethoxycarbonyl-9-thiabicyclo[6.3.0]undeca-10,12-dien-10-yl)carbamoyl]cyclohexane-1-carboxylic acid
@<TRIPOS>ATOM
      1 C1         -5.4079    5.5292   -5.2106 C.3       1 <0>        -0.1528
      2 C2         -5.0751    4.0577   -5.4652 C.3       1 <0>         0.0578
      3 O1         -5.3276    3.2888   -4.2597 O.3       1 <0>        -0.3497
      4 C3         -5.0829    1.9636   -4.3162 C.2       1 <0>         0.5395
      5 O2         -4.6696    1.4648   -5.3458 O.2       1 <0>        -0.5040
      6 C4         -5.3147    1.1253   -3.1381 C.2       1 <0>        -0.2525
      7 C5         -6.6192    0.4917   -2.9103 C.2       1 <0>        -0.0474
      8 C6         -6.6922   -0.2068   -1.7633 C.2       1 <0>        -0.2125
      9 S1         -5.0743   -0.1097   -1.0416 S.3       1 <0>         0.2443
     10 C7         -4.3107    0.9110   -2.2121 C.2       1 <0>         0.1145
     11 N1         -3.0103    1.3907   -2.2219 N.am      1 <0>        -0.6299
     12 C8         -2.1665    1.0710   -1.2208 C.2       1 <0>         0.5255
     13 O3         -2.5450    0.3636   -0.3114 O.2       1 <0>        -0.4614
     14 C9         -0.7527    1.5927   -1.2315 C.3       1 <0>        -0.0749
     15 H1         -0.7675    2.6825   -1.2255 H         1 <0>         0.1017
     16 C10        -0.0366    1.0992   -2.4903 C.3       1 <0>        -0.1147
     17 C11         1.3988    1.6288   -2.5012 C.3       1 <0>        -0.1137
     18 C12         2.1388    1.1220   -1.2617 C.3       1 <0>        -0.1210
     19 C13         1.4227    1.6154   -0.0028 C.3       1 <0>        -0.0967
     20 C14        -0.0127    1.0858    0.0080 C.3       1 <0>        -0.1116
     21 H2          0.0021   -0.0041    0.0020 H         1 <0>         0.0758
     22 C15        -0.7181    1.5718    1.2479 C.2       1 <0>         0.4771
     23 O4         -1.7108    2.2536    1.1502 O.co2     1 <0>        -0.6355
     24 C16        -7.8786   -0.9167   -1.1745 C.3       1 <0>        -0.0489
     25 C17        -8.7611    0.1536   -0.5073 C.3       1 <0>        -0.1160
     26 C18        -9.0656    1.2391   -1.5461 C.3       1 <0>        -0.1323
     27 C19        -9.8329    0.5379   -2.6476 C.3       1 <0>        -0.1171
     28 C20        -8.9494   -0.1745   -3.6564 C.3       1 <0>        -0.1265
     29 C21        -7.6941    0.6217   -3.9885 C.3       1 <0>        -0.0575
     30 H3         -6.4582    5.6216   -4.9340 H         1 <0>         0.0664
     31 H4         -4.7843    5.9079   -4.4008 H         1 <0>         0.0683
     32 H5         -5.2184    6.1065   -6.1155 H         1 <0>         0.0783
     33 H6         -4.0248    3.9654   -5.7418 H         1 <0>         0.0686
     34 H7         -5.6988    3.6790   -6.2750 H         1 <0>         0.0683
     35 H8         -2.7076    1.9566   -2.9493 H         1 <0>         0.4121
     36 H9         -0.5637    1.4603   -3.3734 H         1 <0>         0.0591
     37 H10        -0.0218    0.0093   -2.4963 H         1 <0>         0.0679
     38 H11         1.3840    2.7187   -2.4952 H         1 <0>         0.0633
     39 H12         1.9090    1.2773   -3.3980 H         1 <0>         0.0616
     40 H13         3.1614    1.4993   -1.2694 H         1 <0>         0.0595
     41 H14         2.1536    0.0321   -1.2676 H         1 <0>         0.0605
     42 H15         1.4079    2.7053    0.0031 H         1 <0>         0.0558
     43 H16         1.9499    1.2543    0.8802 H         1 <0>         0.0744
     44 H17        -7.5466   -1.6410   -0.4306 H         1 <0>         0.0745
     45 H18        -8.4381   -1.4214   -1.9621 H         1 <0>         0.0997
     46 H19        -8.2313    0.5922    0.3383 H         1 <0>         0.0647
     47 H20        -9.6917   -0.2980   -0.1638 H         1 <0>         0.0671
     48 H21        -8.1384    1.6562   -1.9388 H         1 <0>         0.0825
     49 H22        -9.6755    2.0269   -1.1040 H         1 <0>         0.0622
     50 H23       -10.4368    1.2765   -3.1749 H         1 <0>         0.0514
     51 H24       -10.5019   -0.1934   -2.1939 H         1 <0>         0.0605
     52 H25        -9.5180   -0.3362   -4.5722 H         1 <0>         0.0632
     53 H26        -8.6567   -1.1421   -3.2487 H         1 <0>         0.0795
     54 H27        -7.9610    1.6730   -4.0958 H         1 <0>         0.0706
     55 H28        -7.2899    0.2622   -4.9349 H         1 <0>         0.0721
     56 O5         -0.2435    1.2473    2.4608 O.co2     1 <0>        -0.7718
@<TRIPOS>BOND
     1    1    2 1
     2    1   30 1
     3    1   31 1
     4    1   32 1
     5    2    3 1
     6    2   33 1
     7    2   34 1
     8    3    4 1
     9    4    5 2
    10    4    6 1
    11    6   10 2
    12    6    7 1
    13    7   29 1
    14    7    8 2
    15    8    9 1
    16    8   24 1
    17    9   10 1
    18   10   11 1
    19   11   12 am
    20   11   35 1
    21   12   13 2
    22   12   14 1
    23   14   15 1
    24   14   20 1
    25   14   16 1
    26   16   17 1
    27   16   36 1
    28   16   37 1
    29   17   18 1
    30   17   38 1
    31   17   39 1
    32   18   19 1
    33   18   40 1
    34   18   41 1
    35   19   20 1
    36   19   42 1
    37   19   43 1
    38   20   21 1
    39   20   22 1
    40   22   23 2
    41   22   56 1
    42   24   25 1
    43   24   44 1
    44   24   45 1
    45   25   26 1
    46   25   46 1
    47   25   47 1
    48   26   27 1
    49   26   48 1
    50   26   49 1
    51   27   28 1
    52   27   50 1
    53   27   51 1
    54   28   29 1
    55   28   52 1
    56   28   53 1
    57   29   54 1
    58   29   55 1
@<TRIPOS>MOLECULE
ZINC13269368
   49    52     0     0     0
SMALL
USER_CHARGES
5-[[(S)-indan-5-yl-(2-thienyl)methyl]sulfamoyl]-2-methyl-benzoic acid
@<TRIPOS>ATOM
      1 C1         -8.0612   -2.1146    2.2702 C.3       1 <0>        -0.1193
      2 C2         -7.2199   -1.3894    1.2517 C.ar      1 <0>         0.0081
      3 C3         -5.9454   -1.8334    0.9653 C.ar      1 <0>        -0.1578
      4 C4         -5.1740   -1.1725    0.0261 C.ar      1 <0>        -0.0193
      5 C5         -5.6699   -0.0559   -0.6239 C.ar      1 <0>        -0.6975
      6 C6         -6.9423    0.3987   -0.3473 C.ar      1 <0>         0.0339
      7 C7         -7.7285   -0.2671    0.5955 C.ar      1 <0>        -0.1373
      8 C8         -9.0921    0.2144    0.8973 C.2       1 <0>         0.4909
      9 O1         -9.8149   -0.4293    1.6314 O.co2     1 <0>        -0.6221
     10 S1         -4.6761    0.7826   -1.8130 S.o2      1 <0>         2.6924
     11 O2         -5.5704    1.4668   -2.6798 O.2       1 <0>        -0.9530
     12 O3         -3.7277   -0.1627   -2.2888 O.2       1 <0>        -0.9631
     13 N1         -3.8197    1.9455   -1.0028 N.pl3     1 <0>        -1.1110
     14 C9         -2.8209    1.5571   -0.0039 C.3       1 <0>         0.2862
     15 H1         -2.4576    0.5534   -0.2246 H         1 <0>         0.1195
     16 C10        -1.6688    2.5279   -0.0416 C.ar      1 <0>        -0.0799
     17 C11        -1.9085    3.8803   -0.1997 C.ar      1 <0>        -0.1011
     18 C12        -0.8509    4.7674   -0.2400 C.ar      1 <0>        -0.1026
     19 C13         0.4496    4.3077   -0.1154 C.ar      1 <0>        -0.0956
     20 C14         0.6889    2.9564    0.0491 C.ar      1 <0>        -0.0963
     21 C15        -0.3730    2.0682    0.0884 C.ar      1 <0>        -0.0887
     22 C16         2.1782    2.7103    0.1608 C.3       1 <0>        -0.0822
     23 C17         2.8416    3.9911   -0.3885 C.3       1 <0>        -0.1207
     24 C18         1.7618    5.0622   -0.1255 C.3       1 <0>        -0.0828
     25 C19        -3.4478    1.5744    1.3664 C.2       1 <0>        -0.1716
     26 C20        -3.2839    0.7024    2.3911 C.2       1 <0>        -0.1372
     27 C21        -3.9659    0.9216    3.5734 C.2       1 <0>        -0.1583
     28 C22        -4.7865    1.9961    3.6693 C.2       1 <0>        -0.1680
     29 S2         -4.6050    2.7444    2.0586 S.3       1 <0>         0.0712
     30 H2         -8.7258   -2.8130    1.7616 H         1 <0>         0.0729
     31 H3         -7.4125   -2.6626    2.9535 H         1 <0>         0.0445
     32 H4         -8.6539   -1.3928    2.8322 H         1 <0>         0.1055
     33 H5         -5.5508   -2.7017    1.4720 H         1 <0>         0.1234
     34 H6         -4.1786   -1.5268   -0.1975 H         1 <0>         0.1278
     35 H7         -7.3298    1.2674   -0.8588 H         1 <0>         0.1448
     36 H8         -3.9793    2.8839   -1.1896 H         1 <0>         0.4193
     37 H9         -2.9215    4.2420   -0.2968 H         1 <0>         0.1250
     38 H10        -1.0386    5.8232   -0.3687 H         1 <0>         0.1223
     39 H11        -0.1869    1.0121    0.2167 H         1 <0>         0.1243
     40 H12         2.4590    2.5559    1.2026 H         1 <0>         0.0796
     41 H13         2.4652    1.8478   -0.4409 H         1 <0>         0.0755
     42 H14         3.0418    3.8966   -1.4558 H         1 <0>         0.0724
     43 H15         3.7556    4.2196    0.1596 H         1 <0>         0.0755
     44 H16         1.7646    5.8056   -0.9226 H         1 <0>         0.0743
     45 H17         1.9306    5.5404    0.8393 H         1 <0>         0.0793
     46 H18        -2.6282   -0.1493    2.2865 H         1 <0>         0.1305
     47 H19        -3.8501    0.2442    4.4065 H         1 <0>         0.1308
     48 H20        -5.3930    2.3164    4.5036 H         1 <0>         0.1832
     49 O4         -9.5341    1.3672    0.3585 O.co2     1 <0>        -0.7476
@<TRIPOS>BOND
     1    1    2 1
     2    1   30 1
     3    1   31 1
     4    1   32 1
     5    2    7 ar
     6    2    3 ar
     7    3    4 ar
     8    3   33 1
     9    4    5 ar
    10    4   34 1
    11    5    6 ar
    12    5   10 1
    13    6    7 ar
    14    6   35 1
    15    7    8 1
    16    8    9 2
    17    8   49 1
    18   10   11 2
    19   10   12 2
    20   10   13 1
    21   13   14 1
    22   13   36 1
    23   14   15 1
    24   14   16 1
    25   14   25 1
    26   16   21 ar
    27   16   17 ar
    28   17   18 ar
    29   17   37 1
    30   18   19 ar
    31   18   38 1
    32   19   24 1
    33   19   20 ar
    34   20   21 ar
    35   20   22 1
    36   21   39 1
    37   22   23 1
    38   22   40 1
    39   22   41 1
    40   23   24 1
    41   23   42 1
    42   23   43 1
    43   24   44 1
    44   24   45 1
    45   25   29 1
    46   25   26 2
    47   26   27 1
    48   26   46 1
    49   27   28 2
    50   27   47 1
    51   28   29 1
    52   28   48 1
@<TRIPOS>MOLECULE
ZINC20569167
   57    60     0     0     0
SMALL
USER_CHARGES
(1R,6S)-6-[[3-methoxycarbonyl-4-(1-naphthyl)-2-thienyl]carbamoyl]-3,4-dimethyl-cyclohex-3-ene-1-carboxylic acid
@<TRIPOS>ATOM
      1 C1         -8.4009   10.5833    0.8462 C.3       1 <0>        -0.1198
      2 C2         -8.0675    9.2028    1.3501 C.2       1 <0>        -0.1364
      3 C3         -8.5399    8.1886    0.6992 C.2       1 <0>        -0.0976
      4 C4         -8.2855    6.7575    1.0724 C.3       1 <0>        -0.0598
      5 C5         -7.7791    6.6708    2.5139 C.3       1 <0>        -0.1189
      6 H1         -8.5936    6.8862    3.2212 H         1 <0>         0.0880
      7 C6         -6.6330    7.6757    2.6864 C.3       1 <0>        -0.0797
      8 H2         -6.1391    7.5374    3.6595 H         1 <0>         0.0939
      9 C7         -7.2080    9.0894    2.5751 C.3       1 <0>        -0.0588
     10 C8         -5.6040    7.4607    1.6066 C.2       1 <0>         0.5342
     11 O1         -5.7910    7.9050    0.4937 O.2       1 <0>        -0.5027
     12 N1         -4.4759    6.7748    1.8776 N.am      1 <0>        -0.6121
     13 C9         -3.5299    6.5772    0.8848 C.2       1 <0>         0.1328
     14 C10        -2.3191    5.9037    0.9733 C.2       1 <0>        -0.2421
     15 C11        -1.5141    5.8465   -0.2330 C.2       1 <0>        -0.0207
     16 C12        -2.0201    6.4627   -1.3338 C.2       1 <0>        -0.2445
     17 S1         -3.5767    7.1105   -0.7613 S.3       1 <0>         0.2306
     18 C13        -0.2054    5.1574   -0.2614 C.ar      1 <0>        -0.0170
     19 C14         0.9591    5.8751   -0.4775 C.ar      1 <0>        -0.1025
     20 C15         2.1921    5.2344   -0.5050 C.ar      1 <0>        -0.1141
     21 C16         2.2911    3.8880   -0.3215 C.ar      1 <0>        -0.1096
     22 C17         1.1350    3.1204   -0.0989 C.ar      1 <0>        -0.0495
     23 C18        -0.1297    3.7569   -0.0673 C.ar      1 <0>        -0.0425
     24 C19        -1.2823    2.9899    0.1542 C.ar      1 <0>        -0.0770
     25 C20        -1.1730    1.6436    0.3310 C.ar      1 <0>        -0.1205
     26 C21         0.0707    1.0165    0.3056 C.ar      1 <0>        -0.1094
     27 C22         1.2104    1.7298    0.0929 C.ar      1 <0>        -0.1198
     28 C23        -1.8763    5.2826    2.2212 C.2       1 <0>         0.5431
     29 O2         -1.2138    5.9212    3.0169 O.2       1 <0>        -0.5062
     30 O3         -2.2025    4.0014    2.4899 O.3       1 <0>        -0.3367
     31 C24        -1.7290    3.4504    3.7470 C.3       1 <0>         0.0343
     32 C25        -7.2771    5.2773    2.7915 C.2       1 <0>         0.4669
     33 O4         -6.1213    5.1011    3.0965 O.co2     1 <0>        -0.6400
     34 O5         -8.1139    4.2318    2.6998 O.co2     1 <0>        -0.7571
     35 C26        -9.3985    8.4619   -0.5087 C.3       1 <0>        -0.1154
     36 H3         -9.0327   10.5036   -0.0507 H         1 <0>         0.0662
     37 H4         -7.4720   11.1159    0.5943 H         1 <0>         0.0572
     38 H5         -8.9414   11.1381    1.6273 H         1 <0>         0.0544
     39 H6         -9.2198    6.1837    0.9833 H         1 <0>         0.0756
     40 H7         -7.5280    6.3317    0.3979 H         1 <0>         0.0696
     41 H8         -6.3804    9.8112    2.5105 H         1 <0>         0.0673
     42 H9         -7.8128    9.3040    3.4685 H         1 <0>         0.0788
     43 H10        -4.3063    6.3719    2.8870 H         1 <0>         0.4577
     44 H11        -1.5839    6.5396   -2.3188 H         1 <0>         0.1865
     45 H12         0.9085    6.9436   -0.6266 H         1 <0>         0.1255
     46 H13         3.0874    5.8139   -0.6752 H         1 <0>         0.1232
     47 H14         3.2592    3.4099   -0.3473 H         1 <0>         0.1241
     48 H15        -2.2525    3.4636    0.1805 H         1 <0>         0.1333
     49 H16        -2.0628    1.0546    0.4974 H         1 <0>         0.1237
     50 H17         0.1312   -0.0518    0.4523 H         1 <0>         0.1202
     51 H18         2.1676    1.2300    0.0713 H         1 <0>         0.1233
     52 H19        -2.0632    2.4064    3.8388 H         1 <0>         0.1010
     53 H20        -2.1352    4.0402    4.5820 H         1 <0>         0.0637
     54 H21        -0.6299    3.4872    3.7726 H         1 <0>         0.0568
     55 H22        -9.7222    7.5085   -0.9517 H         1 <0>         0.0558
     56 H23        -8.8186    9.0322   -1.2493 H         1 <0>         0.0626
     57 H24       -10.2814    9.0445   -0.2067 H         1 <0>         0.0600
@<TRIPOS>BOND
     1    1    2 1
     2    1   36 1
     3    1   37 1
     4    1   38 1
     5    2    9 1
     6    2    3 2
     7    3    4 1
     8    3   35 1
     9    4    5 1
    10    4   39 1
    11    4   40 1
    12    5    6 1
    13    5    7 1
    14    5   32 1
    15    7    8 1
    16    7    9 1
    17    7   10 1
    18    9   41 1
    19    9   42 1
    20   10   11 2
    21   10   12 am
    22   12   13 1
    23   12   43 1
    24   13   17 1
    25   13   14 2
    26   14   15 1
    27   14   28 1
    28   15   16 2
    29   15   18 1
    30   16   17 1
    31   16   44 1
    32   18   23 ar
    33   18   19 ar
    34   19   20 ar
    35   19   45 1
    36   20   21 ar
    37   20   46 1
    38   21   22 ar
    39   21   47 1
    40   22   27 ar
    41   22   23 ar
    42   23   24 ar
    43   24   25 ar
    44   24   48 1
    45   25   26 ar
    46   25   49 1
    47   26   27 ar
    48   26   50 1
    49   27   51 1
    50   28   29 2
    51   28   30 1
    52   30   31 1
    53   31   52 1
    54   31   53 1
    55   31   54 1
    56   32   33 2
    57   32   34 1
    58   35   55 1
    59   35   56 1
    60   35   57 1
@<TRIPOS>MOLECULE
ZINC34923608
   47    49     0     0     0
SMALL
USER_CHARGES

@<TRIPOS>ATOM
      1 C1          0.3277    1.1635    0.8946 C.3       1 <0>        -0.0922
      2 C2          0.2602   -0.2924    0.5114 C.2       1 <0>         0.3028
      3 C3         -0.9645   -0.9288    0.4464 C.2       1 <0>        -0.3943
      4 C4         -0.9801   -2.3901    0.0568 C.3       1 <0>         0.2601
      5 H1         -1.6028   -2.4938   -0.8318 H         1 <0>         0.0757
      6 N1          0.3326   -3.0288   -0.2269 N.pl3     1 <0>        -0.5139
      7 C5          0.5561   -4.3400   -0.5973 C.2       1 <0>         0.2320
      8 C6          1.8347   -4.7222   -0.8098 C.2       1 <0>        -0.3038
      9 S1          2.7287   -3.2160   -0.4834 S.3       1 <0>         0.1476
     10 C7          1.4297   -2.2226   -0.1055 C.2       1 <0>         0.3191
     11 N2          1.3736   -0.9512    0.2342 N.2       1 <0>        -0.5951
     12 C8         -0.5574   -5.2867   -0.7545 C.2       1 <0>        -0.4678
     13 C9         -0.3060   -6.5889   -0.9892 C.2       1 <0>         0.5028
     14 O1          0.9682   -7.0496   -0.9575 O.3       1 <0>        -0.7027
     15 N3         -1.3495   -7.4570   -1.2629 N.pl3     1 <0>        -0.7529
     16 C10        -1.0687   -8.8477   -1.6283 C.3       1 <0>         0.1641
     17 C11        -2.3563   -9.5414   -1.9916 C.2       1 <0>        -0.1608
     18 C12        -2.4746  -10.1366   -3.1526 C.2       1 <0>        -0.1866
     19 C13        -1.6387   -3.1605    1.1720 C.ar      1 <0>        -0.0635
     20 C14        -0.9584   -3.3812    2.3550 C.ar      1 <0>        -0.0802
     21 C15        -1.5619   -4.0878    3.3782 C.ar      1 <0>        -0.1116
     22 C16        -2.8472   -4.5742    3.2182 C.ar      1 <0>        -0.0322
     23 C17        -3.5276   -4.3530    2.0341 C.ar      1 <0>        -0.1137
     24 C18        -2.9251   -3.6414    1.0137 C.ar      1 <0>        -0.0656
     25 Cl1        -3.6056   -5.4622    4.5027 Cl        1 <0>        -0.0858
     26 C19        -2.1517   -0.2437    0.7322 C.2       1 <0>         0.5344
     27 O2         -2.1157    0.9338    1.0445 O.2       1 <0>        -0.5490
     28 O3         -3.3375   -0.8881    0.6617 O.3       1 <0>        -0.3577
     29 C20        -4.5083   -0.1275    0.9662 C.3       1 <0>         0.0414
     30 H2          1.3667    1.4930    0.8884 H         1 <0>         0.0645
     31 H3         -0.2451    1.7542    0.1798 H         1 <0>         0.0868
     32 H4         -0.0896    1.2962    1.8927 H         1 <0>         0.0862
     33 H5          2.2158   -5.6897   -1.1013 H         1 <0>         0.2337
     34 H6         -1.5770   -4.9381   -0.6818 H         1 <0>         0.0879
     35 H7         -2.2663   -7.1444   -1.2128 H         1 <0>         0.3854
     36 H8         -0.3909   -8.8694   -2.4816 H         1 <0>         0.0581
     37 H9         -0.6063   -9.3589   -0.7839 H         1 <0>         0.0566
     38 H10        -3.1814   -9.5478   -1.2949 H         1 <0>         0.1075
     39 H11        -1.6494  -10.1302   -3.8493 H         1 <0>         0.0975
     40 H12        -3.3973  -10.6338   -3.4130 H         1 <0>         0.0954
     41 H13         0.0451   -3.0018    2.4796 H         1 <0>         0.1144
     42 H14        -1.0301   -4.2604    4.3022 H         1 <0>         0.1263
     43 H15        -4.5308   -4.7327    1.9085 H         1 <0>         0.1278
     44 H16        -3.4579   -3.4646    0.0911 H         1 <0>         0.1285
     45 H17        -4.4407    0.2507    1.9863 H         1 <0>         0.0515
     46 H18        -4.5883    0.7097    0.2729 H         1 <0>         0.0515
     47 H19        -5.3890   -0.7628    0.8719 H         1 <0>         0.0898
@<TRIPOS>BOND
     1    1    2 1
     2    1   30 1
     3    1   31 1
     4    1   32 1
     5    2   11 1
     6    2    3 2
     7    3    4 1
     8    3   26 1
     9    4    5 1
    10    4    6 1
    11    4   19 1
    12    6   10 1
    13    6    7 1
    14    7    8 2
    15    7   12 1
    16    8    9 1
    17    8   33 1
    18    9   10 1
    19   10   11 2
    20   12   13 2
    21   12   34 1
    22   13   14 1
    23   13   15 1
    24   15   16 1
    25   15   35 1
    26   16   17 1
    27   16   36 1
    28   16   37 1
    29   17   18 2
    30   17   38 1
    31   18   39 1
    32   18   40 1
    33   19   24 ar
    34   19   20 ar
    35   20   21 ar
    36   20   41 1
    37   21   22 ar
    38   21   42 1
    39   22   23 ar
    40   22   25 1
    41   23   24 ar
    42   23   43 1
    43   24   44 1
    44   26   27 2
    45   26   28 1
    46   28   29 1
    47   29   45 1
    48   29   46 1
    49   29   47 1
@<TRIPOS>MOLECULE
ZINC44546638
   61    64     0     0     0
SMALL
USER_CHARGES

@<TRIPOS>ATOM
      1 C1          0.8632    2.2578    0.0947 C.3       1 <0>        -0.1351
      2 C2          0.7372    0.7372    0.2081 C.3       1 <0>        -0.0275
      3 C3          1.5966    0.2397    1.3720 C.3       1 <0>        -0.1376
      4 C4         -0.7253    0.3639    0.4579 C.3       1 <0>        -0.1434
      5 C5          1.2072    0.0973   -1.0728 C.ar      1 <0>        -0.0778
      6 C6          0.3393   -0.6811   -1.8156 C.ar      1 <0>        -0.1287
      7 C7          0.7705   -1.2681   -2.9905 C.ar      1 <0>        -0.0539
      8 C8          2.0693   -1.0763   -3.4229 C.ar      1 <0>        -0.0757
      9 C9          2.9370   -0.2971   -2.6806 C.ar      1 <0>        -0.1187
     10 C10         2.5046    0.2934   -1.5079 C.ar      1 <0>        -0.1267
     11 C11         2.5396   -1.7170   -4.7033 C.3       1 <0>         0.2202
     12 H1          1.6774   -1.9789   -5.3166 H         1 <0>         0.1053
     13 C12         3.3370   -2.9816   -4.3778 C.3       1 <0>        -0.1897
     14 C13         2.4187   -4.0131   -3.7746 C.2       1 <0>         0.5008
     15 O1          1.2178   -3.8080   -3.7291 O.co2     1 <0>        -0.6886
     16 O2          2.8768   -5.0527   -3.3321 O.co2     1 <0>        -0.7024
     17 N1          3.3922   -0.7770   -5.4353 N.am      1 <0>        -0.7004
     18 C14         3.4621   -0.8373   -6.7799 C.2       1 <0>         0.6451
     19 O3          2.8889   -1.7257   -7.3789 O.2       1 <0>        -0.5638
     20 O4          4.1672    0.0867   -7.4594 O.3       1 <0>        -0.3685
     21 C15         4.1983   -0.0383   -8.8826 C.3       1 <0>         0.1063
     22 C16         5.0412    1.0925   -9.4756 C.3       1 <0>        -0.0076
     23 C17         6.4928    0.9065   -9.1074 C.ar      1 <0>        -0.0807
     24 C18         7.1407    0.8604   -7.8913 C.ar      1 <0>        -0.0862
     25 C19         8.5110    0.6744   -7.8430 C.ar      1 <0>        -0.1124
     26 C20         9.2335    0.5343   -9.0142 C.ar      1 <0>        -0.1191
     27 C21         8.5935    0.5792  -10.2354 C.ar      1 <0>        -0.0978
     28 C22         7.2113    0.7666  -10.2917 C.ar      1 <0>        -0.0611
     29 C23         6.2828    0.8533  -11.4460 C.ar      1 <0>        -0.0478
     30 C24         4.9843    1.0474  -10.9829 C.ar      1 <0>        -0.0857
     31 C25         3.9378    1.1600  -11.8735 C.ar      1 <0>        -0.0939
     32 C26         4.1747    1.0797  -13.2344 C.ar      1 <0>        -0.1137
     33 C27         5.4613    0.8865  -13.7042 C.ar      1 <0>        -0.1161
     34 C28         6.5144    0.7734  -12.8203 C.ar      1 <0>        -0.0981
     35 H2          1.9052    2.5238   -0.0834 H         1 <0>         0.0550
     36 H3          0.2510    2.6123   -0.7346 H         1 <0>         0.0547
     37 H4          0.5233    2.7207    1.0211 H         1 <0>         0.0531
     38 H5          1.2566    0.7025    2.2985 H         1 <0>         0.0532
     39 H6          1.5068   -0.8436    1.4528 H         1 <0>         0.0578
     40 H7          2.6386    0.5056    1.1940 H         1 <0>         0.0553
     41 H8         -1.3376    0.7184   -0.3713 H         1 <0>         0.0580
     42 H9         -0.8151   -0.7194    0.5387 H         1 <0>         0.0606
     43 H10        -1.0653    0.8267    1.3844 H         1 <0>         0.0528
     44 H11        -0.6755   -0.8310   -1.4777 H         1 <0>         0.1215
     45 H12         0.0926   -1.8769   -3.5704 H         1 <0>         0.1395
     46 H13         3.9519   -0.1475   -3.0183 H         1 <0>         0.1115
     47 H14         3.1813    0.9052   -0.9299 H         1 <0>         0.1133
     48 H15         3.7782   -3.3783   -5.2922 H         1 <0>         0.0659
     49 H16         4.1280   -2.7398   -3.6679 H         1 <0>         0.0590
     50 H17         3.9063   -0.1112   -4.9523 H         1 <0>         0.3986
     51 H18         4.6368   -0.9988   -9.1534 H         1 <0>         0.0718
     52 H19         3.1831    0.0211   -9.2748 H         1 <0>         0.0750
     53 H20         4.6821    2.0564   -9.1151 H         1 <0>         0.1135
     54 H21         6.5784    0.9699   -6.9757 H         1 <0>         0.1306
     55 H22         9.0171    0.6388   -6.8896 H         1 <0>         0.1279
     56 H23        10.3029    0.3896   -8.9724 H         1 <0>         0.1256
     57 H24         9.1615    0.4697  -11.1474 H         1 <0>         0.1214
     58 H25         2.9325    1.3105  -11.5087 H         1 <0>         0.1277
     59 H26         3.3539    1.1677  -13.9308 H         1 <0>         0.1285
     60 H27         5.6421    0.8237  -14.7671 H         1 <0>         0.1266
     61 H28         7.5174    0.6226  -13.1914 H         1 <0>         0.1231
@<TRIPOS>BOND
     1    1    2 1
     2    1   35 1
     3    1   36 1
     4    1   37 1
     5    2    3 1
     6    2    4 1
     7    2    5 1
     8    3   38 1
     9    3   39 1
    10    3   40 1
    11    4   41 1
    12    4   42 1
    13    4   43 1
    14    5   10 ar
    15    5    6 ar
    16    6    7 ar
    17    6   44 1
    18    7    8 ar
    19    7   45 1
    20    8    9 ar
    21    8   11 1
    22    9   10 ar
    23    9   46 1
    24   10   47 1
    25   11   12 1
    26   11   13 1
    27   11   17 1
    28   13   14 1
    29   13   48 1
    30   13   49 1
    31   14   15 2
    32   14   16 1
    33   17   18 am
    34   17   50 1
    35   18   19 2
    36   18   20 1
    37   20   21 1
    38   21   22 1
    39   21   51 1
    40   21   52 1
    41   22   30 1
    42   22   23 1
    43   22   53 1
    44   23   28 ar
    45   23   24 ar
    46   24   25 ar
    47   24   54 1
    48   25   26 ar
    49   25   55 1
    50   26   27 ar
    51   26   56 1
    52   27   28 ar
    53   27   57 1
    54   28   29 1
    55   29   34 ar
    56   29   30 ar
    57   30   31 ar
    58   31   32 ar
    59   31   58 1
    60   32   33 ar
    61   32   59 1
    62   33   34 ar
    63   33   60 1
    64   34   61 1
@<TRIPOS>MOLECULE
ZINC02956125
   54    58     0     0     0
SMALL
USER_CHARGES
3-[5-(benzo[1,3]dioxol-5-ylmethylamino)-1,3,4-thiadiazol-2-yl]-7-diethylamino-chromen-2-one
@<TRIPOS>ATOM
      1 C1          2.8331   -7.2819    1.3739 C.3       1 <0>        -0.1749
      2 C2          2.3803   -7.0139   -0.0627 C.3       1 <0>         0.1107
      3 N1          1.1188   -6.2691   -0.0462 N.pl3     1 <0>        -0.6080
      4 C3         -0.1569   -6.9893   -0.0385 C.3       1 <0>         0.1081
      5 C4         -0.6148   -7.2312   -1.4782 C.3       1 <0>        -0.1746
      6 C5          1.1324   -4.8775   -0.0379 C.ar      1 <0>         0.2863
      7 C6          2.3505   -4.1960   -0.0453 C.ar      1 <0>        -0.2141
      8 C7          2.3778   -2.8336   -0.0373 C.ar      1 <0>         0.0066
      9 C8          1.1761   -2.1076   -0.0214 C.ar      1 <0>        -0.2205
     10 C9          1.2014   -0.6906   -0.0184 C.2       1 <0>         0.0698
     11 C10         0.0021   -0.0041    0.0020 C.2       1 <0>        -0.1654
     12 C11        -1.2503   -0.7669    0.0093 C.2       1 <0>         0.5236
     13 O1         -2.3175   -0.1818    0.0226 O.2       1 <0>        -0.4489
     14 O2         -1.2225   -2.1100    0.0010 O.3       1 <0>        -0.2587
     15 C12        -0.0550   -2.7897   -0.0139 C.ar      1 <0>         0.2080
     16 C13        -0.0646   -4.1770   -0.0222 C.ar      1 <0>        -0.2330
     17 C14        -0.0179    1.4712    0.0101 C.2       1 <0>         0.0833
     18 N2          0.9880    2.3381    0.0052 N.2       1 <0>        -0.2390
     19 N3          0.7932    3.5842    0.0131 N.2       1 <0>        -0.3503
     20 C15        -0.4284    4.1031    0.0268 C.2       1 <0>         0.3092
     21 S1         -1.4055    2.6027    0.0215 S.3       1 <0>         0.0239
     22 N4         -0.8326    5.4287    0.0373 N.pl3     1 <0>        -0.6609
     23 C16         0.1673    6.4994    0.0333 C.3       1 <0>         0.1776
     24 C17        -0.5281    7.8363    0.0467 C.ar      1 <0>        -0.1081
     25 C18        -0.8526    8.4569   -1.1454 C.ar      1 <0>        -0.0827
     26 C19        -1.4957    9.6806   -1.1383 C.ar      1 <0>        -0.1025
     27 C20        -1.8058   10.2939    0.0647 C.ar      1 <0>         0.0462
     28 C21        -1.4741    9.6713    1.2655 C.ar      1 <0>         0.0298
     29 C22        -0.8351    8.4420    1.2507 C.ar      1 <0>        -0.0774
     30 O3         -1.8808   10.4676    2.2968 O.3       1 <0>        -0.3066
     31 C23        -2.0958   11.7679    1.7168 C.3       1 <0>         0.2126
     32 O4         -2.4203   11.4804    0.3437 O.3       1 <0>        -0.3069
     33 H1          3.7717   -7.8360    1.3616 H         1 <0>         0.0693
     34 H2          2.9776   -6.3340    1.8922 H         1 <0>         0.0613
     35 H3          2.0727   -7.8667    1.8914 H         1 <0>         0.0587
     36 H4          2.2358   -7.9618   -0.5810 H         1 <0>         0.0813
     37 H5          3.1407   -6.4291   -0.5803 H         1 <0>         0.0824
     38 H6         -0.0310   -7.9460    0.4684 H         1 <0>         0.0815
     39 H7         -0.9059   -6.3960    0.4861 H         1 <0>         0.0824
     40 H8          0.1342   -7.8245   -2.0028 H         1 <0>         0.0586
     41 H9         -1.5640   -7.7670   -1.4724 H         1 <0>         0.0695
     42 H10        -0.7407   -6.2745   -1.9850 H         1 <0>         0.0613
     43 H11         3.2766   -4.7515   -0.0579 H         1 <0>         0.1382
     44 H12         3.3236   -2.3123   -0.0427 H         1 <0>         0.1441
     45 H13         2.1404   -0.1572   -0.0287 H         1 <0>         0.1597
     46 H14        -1.0033   -4.7110   -0.0162 H         1 <0>         0.1448
     47 H15        -1.7775    5.6476    0.0473 H         1 <0>         0.4225
     48 H16         0.7992    6.4098    0.9169 H         1 <0>         0.0860
     49 H17         0.7824    6.4188   -0.8629 H         1 <0>         0.0886
     50 H18        -0.6071    7.9826   -2.0841 H         1 <0>         0.1433
     51 H19        -1.7516   10.1612   -2.0710 H         1 <0>         0.1408
     52 H20        -0.5765    7.9570    2.1804 H         1 <0>         0.1396
     53 H21        -1.1889   12.3694    1.7781 H         1 <0>         0.0881
     54 H22        -2.9264   12.2741    2.2087 H         1 <0>         0.1350
@<TRIPOS>BOND
     1    1    2 1
     2    1   33 1
     3    1   34 1
     4    1   35 1
     5    2    3 1
     6    2   36 1
     7    2   37 1
     8    3    4 1
     9    3    6 1
    10    4    5 1
    11    4   38 1
    12    4   39 1
    13    5   40 1
    14    5   41 1
    15    5   42 1
    16    6   16 ar
    17    6    7 ar
    18    7    8 ar
    19    7   43 1
    20    8    9 ar
    21    8   44 1
    22    9   15 ar
    23    9   10 1
    24   10   11 2
    25   10   45 1
    26   11   12 1
    27   11   17 1
    28   12   13 2
    29   12   14 1
    30   14   15 1
    31   15   16 ar
    32   16   46 1
    33   17   21 1
    34   17   18 2
    35   18   19 1
    36   19   20 2
    37   20   21 1
    38   20   22 1
    39   22   23 1
    40   22   47 1
    41   23   24 1
    42   23   48 1
    43   23   49 1
    44   24   29 ar
    45   24   25 ar
    46   25   26 ar
    47   25   50 1
    48   26   27 ar
    49   26   51 1
    50   27   32 1
    51   27   28 ar
    52   28   29 ar
    53   28   30 1
    54   29   52 1
    55   30   31 1
    56   31   32 1
    57   31   53 1
    58   31   54 1
@<TRIPOS>MOLECULE
ZINC12595191
   55    59     0     0     0
SMALL
USER_CHARGES
[2-[(3S,3aR,7E)-3-(2-furyl)-7-(2-furylmethylene)-3a,4,5,6-tetrahydro-3H-indazol-2-yl]-2-oxo-ethyl] 2-hydroxybenzoate
@<TRIPOS>ATOM
      1 C1         -2.6336    2.8794   -4.7005 C.ar      1 <0>        -0.1434
      2 C2         -2.1143    2.5206   -5.9341 C.ar      1 <0>        -0.0637
      3 C3         -0.9778    1.7410   -6.0137 C.ar      1 <0>        -0.1606
      4 C4         -0.3475    1.3100   -4.8556 C.ar      1 <0>         0.1763
      5 C5         -0.8699    1.6703   -3.6055 C.ar      1 <0>        -0.1590
      6 C6         -2.0240    2.4561   -3.5399 C.ar      1 <0>        -0.0442
      7 C7         -0.2095    1.2182   -2.3678 C.2       1 <0>         0.5109
      8 O1          0.7908    0.5310   -2.4290 O.2       1 <0>        -0.4865
      9 O2         -0.7150    1.5668   -1.1683 O.3       1 <0>        -0.3351
     10 C8         -0.0127    1.0858    0.0080 C.3       1 <0>         0.0670
     11 C9         -0.7181    1.5718    1.2479 C.2       1 <0>         0.5577
     12 O3         -1.7149    2.2564    1.1498 O.2       1 <0>        -0.4823
     13 N1         -0.2416    1.2460    2.4658 N.am      1 <0>        -0.4712
     14 C10        -0.8227    1.6467    3.7674 C.3       1 <0>         0.2033
     15 H1         -1.6280    0.9727    4.0596 H         1 <0>         0.1233
     16 C11         0.3873    1.4993    4.7060 C.3       1 <0>        -0.0999
     17 H2          0.8988    2.4491    4.8616 H         1 <0>         0.1193
     18 C12        -0.0010    0.8394    6.0306 C.3       1 <0>        -0.1062
     19 C13         1.2774    0.5665    6.8205 C.3       1 <0>        -0.1185
     20 C14         2.2103   -0.4108    6.1344 C.3       1 <0>        -0.0755
     21 C15         2.1869   -0.3348    4.6379 C.2       1 <0>        -0.0629
     22 C16         3.0740   -1.0620    3.9184 C.2       1 <0>        -0.0222
     23 C17         4.0458   -1.9138    4.6020 C.2       1 <0>        -0.0024
     24 C18         4.9924   -2.6961    4.0004 C.2       1 <0>        -0.1708
     25 C19         5.7012   -3.3373    5.0314 C.2       1 <0>        -0.2147
     26 C20         5.1645   -2.9248    6.1990 C.2       1 <0>        -0.0285
     27 O4          4.1698   -2.0616    5.9367 O.3       1 <0>        -0.1642
     28 C21         1.2515    0.4850    3.9673 C.2       1 <0>         0.1541
     29 N2          0.8885    0.4626    2.7283 N.2       1 <0>        -0.2377
     30 C22        -1.3049    3.0738    3.7270 C.2       1 <0>        -0.0155
     31 C23        -2.4222    3.5435    4.3105 C.2       1 <0>        -0.1831
     32 C24        -2.4859    4.9258    4.0202 C.2       1 <0>        -0.2116
     33 C25        -1.4038    5.2181    3.2765 C.2       1 <0>        -0.0269
     34 O5         -0.6891    4.0937    3.1070 O.3       1 <0>        -0.1676
     35 O6          0.7692    0.5440   -4.9323 O.3       1 <0>        -0.4791
     36 H3         -3.5230    3.4899   -4.6487 H         1 <0>         0.1363
     37 H4         -2.6014    2.8533   -6.8388 H         1 <0>         0.1360
     38 H5         -0.5790    1.4659   -6.9790 H         1 <0>         0.1407
     39 H6         -2.4349    2.7344   -2.5807 H         1 <0>         0.1447
     40 H7          0.0021   -0.0041    0.0020 H         1 <0>         0.1103
     41 H8          1.0099    1.4631    0.0003 H         1 <0>         0.1069
     42 H9         -0.6485    1.5076    6.5984 H         1 <0>         0.0820
     43 H10        -0.5202   -0.0989    5.8358 H         1 <0>         0.0754
     44 H11         1.8051    1.5088    6.9679 H         1 <0>         0.0672
     45 H12         1.0062    0.1622    7.7957 H         1 <0>         0.0772
     46 H13         3.2272   -0.2168    6.4754 H         1 <0>         0.0902
     47 H14         1.9347   -1.4218    6.4344 H         1 <0>         0.0846
     48 H15         3.0637   -1.0128    2.8396 H         1 <0>         0.1570
     49 H16         5.1622   -2.8013    2.9391 H         1 <0>         0.1538
     50 H17         6.5210   -4.0302    4.9116 H         1 <0>         0.1520
     51 H18         5.4850   -3.2349    7.1826 H         1 <0>         0.2059
     52 H19        -3.1336    2.9742    4.8902 H         1 <0>         0.1491
     53 H20        -3.2555    5.6148    4.3353 H         1 <0>         0.1507
     54 H21        -1.1500    6.1926    2.8864 H         1 <0>         0.2030
     55 H22         0.5933   -0.4067   -4.9534 H         1 <0>         0.3987
@<TRIPOS>BOND
     1    1    6 ar
     2    1    2 ar
     3    1   36 1
     4    2    3 ar
     5    2   37 1
     6    3    4 ar
     7    3   38 1
     8    4    5 ar
     9    4   35 1
    10    5    6 ar
    11    5    7 1
    12    6   39 1
    13    7    8 2
    14    7    9 1
    15    9   10 1
    16   10   11 1
    17   10   40 1
    18   10   41 1
    19   11   12 2
    20   11   13 am
    21   13   29 1
    22   13   14 1
    23   14   15 1
    24   14   16 1
    25   14   30 1
    26   16   17 1
    27   16   28 1
    28   16   18 1
    29   18   19 1
    30   18   42 1
    31   18   43 1
    32   19   20 1
    33   19   44 1
    34   19   45 1
    35   20   21 1
    36   20   46 1
    37   20   47 1
    38   21   22 2
    39   21   28 1
    40   22   23 1
    41   22   48 1
    42   23   27 1
    43   23   24 2
    44   24   25 1
    45   24   49 1
    46   25   26 2
    47   25   50 1
    48   26   27 1
    49   26   51 1
    50   28   29 2
    51   30   34 1
    52   30   31 2
    53   31   32 1
    54   31   52 1
    55   32   33 2
    56   32   53 1
    57   33   34 1
    58   33   54 1
    59   35   55 1
@<TRIPOS>MOLECULE
ZINC31648818
   58    63     0     0     0
SMALL
USER_CHARGES
3-benzyl-5-[[5-(1H-indol-3-yl)-4-[[(2R)-tetrahydrofuran-2-yl]methyl]-1,2,4-triazol-3-yl]sulfanylmethyl]-1,2,4-oxadiazole
@<TRIPOS>ATOM
      1 C1          1.1442    3.1698   -0.0065 C.ar      1 <0>        -0.1150
      2 C2          1.1133    1.7895   -0.0755 C.ar      1 <0>        -0.1205
      3 C3         -0.0989    1.1252   -0.0886 C.ar      1 <0>        -0.1062
      4 C4         -1.2802    1.8414   -0.0380 C.ar      1 <0>        -0.0926
      5 C5         -1.2491    3.2214    0.0364 C.ar      1 <0>        -0.1016
      6 C6         -0.0370    3.8857    0.0495 C.ar      1 <0>        -0.1204
      7 C7         -2.6017    1.1174   -0.0585 C.3       1 <0>         0.0088
      8 C8         -3.0250    0.8043    1.3536 C.2       1 <0>         0.1802
      9 N1         -3.7694    1.5882    2.1537 N.2       1 <0>        -0.4543
     10 C9         -3.8919    0.9278    3.2799 C.2       1 <0>         0.1882
     11 O1         -3.2268   -0.2217    3.1306 O.3       1 <0>         0.0929
     12 N2         -2.7425   -0.2750    2.0197 N.2       1 <0>        -0.3698
     13 C10        -4.6403    1.3786    4.5079 C.3       1 <0>        -0.0294
     14 S1         -6.3574    0.8149    4.4088 S.3       1 <0>         0.0628
     15 C11        -6.9796    1.4613    5.9253 C.2       1 <0>         0.1623
     16 N3         -6.3025    2.1498    6.8143 N.2       1 <0>        -0.2906
     17 N4         -7.0621    2.4653    7.8016 N.2       1 <0>        -0.2660
     18 C12        -8.2731    1.9969    7.6038 C.2       1 <0>         0.2722
     19 N5         -8.2599    1.3441    6.3928 N.pl3     1 <0>        -0.4543
     20 C13        -9.3816    0.6628    5.7417 C.3       1 <0>         0.1017
     21 C14        -9.4953   -0.7638    6.2828 C.3       1 <0>         0.0608
     22 H1         -9.5000   -0.7175    7.3818 H         1 <0>         0.0817
     23 C15       -10.7311   -1.4730    5.6739 C.3       1 <0>        -0.1461
     24 C16       -10.3066   -2.9627    5.8001 C.3       1 <0>        -0.1513
     25 C17        -8.7799   -2.8895    5.5826 C.3       1 <0>         0.0533
     26 O2         -8.3665   -1.5473    5.8641 O.3       1 <0>        -0.3666
     27 C18        -9.4314    2.1480    8.5073 C.2       1 <0>        -0.1173
     28 C19       -10.6889    2.5231    8.1582 C.2       1 <0>         0.0823
     29 N6        -11.4863    2.5475    9.2657 N.pl3     1 <0>        -0.5947
     30 H2        -12.5468    2.8247    9.1738 H         1 <0>         0.4492
     31 C20       -10.7606    2.1930   10.3827 C.ar      1 <0>         0.1078
     32 C21        -9.4460    1.9273    9.9634 C.ar      1 <0>        -0.0751
     33 C22        -8.4819    1.5415   10.8925 C.ar      1 <0>        -0.0627
     34 C23        -8.8244    1.4224   12.2213 C.ar      1 <0>        -0.1407
     35 C24       -10.1223    1.6845   12.6365 C.ar      1 <0>        -0.0942
     36 C25       -11.0861    2.0669   11.7294 C.ar      1 <0>        -0.1301
     37 H3          2.0913    3.6889    0.0034 H         1 <0>         0.1235
     38 H4          2.0361    1.2302   -0.1196 H         1 <0>         0.1243
     39 H5         -0.1231    0.0468   -0.1428 H         1 <0>         0.1233
     40 H6         -2.1720    3.7807    0.0797 H         1 <0>         0.1262
     41 H7         -0.0128    4.9641    0.1030 H         1 <0>         0.1248
     42 H8         -3.3611    1.7538   -0.5363 H         1 <0>         0.1096
     43 H9         -2.4980    0.1810   -0.6264 H         1 <0>         0.1048
     44 H10        -4.1655    0.9521    5.4038 H         1 <0>         0.1392
     45 H11        -4.6178    2.4767    4.5685 H         1 <0>         0.1451
     46 H12       -10.3133    1.2093    5.9499 H         1 <0>         0.1096
     47 H13        -9.2104    0.6305    4.6556 H         1 <0>         0.1071
     48 H14       -11.6259   -1.2193    6.2613 H         1 <0>         0.0869
     49 H15       -10.8689   -1.1414    4.6342 H         1 <0>         0.0845
     50 H16       -10.5798   -3.3386    6.7971 H         1 <0>         0.0793
     51 H17       -10.8210   -3.5570    5.0306 H         1 <0>         0.0868
     52 H18        -8.2786   -3.5955    6.2611 H         1 <0>         0.0723
     53 H19        -8.5449   -3.1527    4.5407 H         1 <0>         0.0748
     54 H20       -11.0101    2.7636    7.1555 H         1 <0>         0.1721
     55 H21        -7.4710    1.3364   10.5723 H         1 <0>         0.1251
     56 H22        -8.0793    1.1232   12.9435 H         1 <0>         0.1260
     57 H23       -10.3792    1.5882   13.6811 H         1 <0>         0.1278
     58 H24       -12.0931    2.2688   12.0634 H         1 <0>         0.1225
@<TRIPOS>BOND
     1    1    6 ar
     2    1    2 ar
     3    1   37 1
     4    2    3 ar
     5    2   38 1
     6    3    4 ar
     7    3   39 1
     8    4    5 ar
     9    4    7 1
    10    5    6 ar
    11    5   40 1
    12    6   41 1
    13    7    8 1
    14    7   42 1
    15    7   43 1
    16    8   12 2
    17    8    9 1
    18    9   10 2
    19   10   11 1
    20   10   13 1
    21   11   12 1
    22   13   14 1
    23   13   44 1
    24   13   45 1
    25   14   15 1
    26   15   19 1
    27   15   16 2
    28   16   17 1
    29   17   18 2
    30   18   19 1
    31   18   27 1
    32   19   20 1
    33   20   21 1
    34   20   46 1
    35   20   47 1
    36   21   22 1
    37   21   26 1
    38   21   23 1
    39   23   24 1
    40   23   48 1
    41   23   49 1
    42   24   25 1
    43   24   50 1
    44   24   51 1
    45   25   26 1
    46   25   52 1
    47   25   53 1
    48   27   32 1
    49   27   28 2
    50   28   29 1
    51   28   54 1
    52   29   30 1
    53   29   31 1
    54   31   36 ar
    55   31   32 ar
    56   32   33 ar
    57   33   34 ar
    58   33   55 1
    59   34   35 ar
    60   34   56 1
    61   35   36 ar
    62   35   57 1
    63   36   58 1
@<TRIPOS>MOLECULE
ZINC40383878
   61    65     0     0     0
SMALL
USER_CHARGES

@<TRIPOS>ATOM
      1 C1         -0.0162    1.3464    0.0094 C.2       1 <0>        -0.2020
      2 C2          1.3237    1.7887   -0.0010 C.2       1 <0>        -0.1722
      3 C3          2.1041    0.6980   -0.0151 C.2       1 <0>         0.0090
      4 N1          1.2972   -0.4096   -0.0111 N.pl3     1 <0>        -0.4409
      5 C4          0.0021   -0.0041    0.0020 C.2       1 <0>         0.0025
      6 C5          1.8149   -1.7834   -0.0179 C.3       1 <0>         0.1115
      7 C6          3.2939   -1.7404    0.3853 C.3       1 <0>         0.0397
      8 N2          4.0010   -0.7373   -0.4229 N.3       1 <0>        -0.5305
      9 C7          3.6118    0.6296   -0.0337 C.3       1 <0>         0.1965
     10 H1          4.0031    0.8560    0.9581 H         1 <0>         0.0797
     11 C8          4.1542    1.6177   -1.0340 C.ar      1 <0>        -0.0286
     12 C9          4.1562    1.3072   -2.3810 C.ar      1 <0>        -0.0825
     13 C10         4.6537    2.2135   -3.2985 C.ar      1 <0>        -0.0572
     14 C11         5.1488    3.4306   -2.8691 C.ar      1 <0>        -0.0443
     15 C12         5.1460    3.7415   -1.5222 C.ar      1 <0>        -0.0540
     16 C13         4.6445    2.8369   -0.6051 C.ar      1 <0>        -0.1080
     17 N3          5.6825    4.4007   -3.8515 N.pl3     1 <0>         0.0315
     18 O1          5.6853    4.1286   -5.0295 O.2       1 <0>        -0.1563
     19 O2          6.1155    5.4652   -3.4759 O.3       1 <0>        -0.1568
     20 C14         5.4560   -0.9170   -0.3301 C.3       1 <0>         0.1314
     21 C15         5.8420   -2.2272   -0.9667 C.2       1 <0>         0.0176
     22 C16         6.1730   -2.4041   -2.2648 C.2       1 <0>        -0.1882
     23 C17         6.4623   -3.7670   -2.4354 C.2       1 <0>        -0.1135
     24 C18         6.2910   -4.3601   -1.2174 C.2       1 <0>        -0.0753
     25 O3          5.9191   -3.4072   -0.3377 O.3       1 <0>        -0.1658
     26 C19         6.4822   -5.7828   -0.9171 C.2       1 <0>         0.6043
     27 O4          6.8247   -6.5498   -1.7977 O.2       1 <0>        -0.5141
     28 N4          6.2786   -6.2407    0.3340 N.am      1 <0>        -0.7175
     29 C20         6.4697   -7.6619    0.6339 C.3       1 <0>         0.1443
     30 C21         5.1887   -8.4299    0.3018 C.3       1 <0>        -0.1294
     31 C22         5.3882   -9.9141    0.6150 C.3       1 <0>        -0.1179
     32 C23         5.7132  -10.0827    2.1006 C.3       1 <0>        -0.1231
     33 C24         6.9941   -9.3147    2.4328 C.3       1 <0>        -0.1165
     34 C25         6.7946   -7.8304    2.1195 C.3       1 <0>        -0.1266
     35 H2         -0.8956    1.9732    0.0252 H         1 <0>         0.1384
     36 H3          1.6588    2.8154    0.0014 H         1 <0>         0.1342
     37 H4         -0.8639   -0.6494    0.0064 H         1 <0>         0.1638
     38 H5          1.2568   -2.3901    0.6953 H         1 <0>         0.0945
     39 H6          1.7184   -2.2078   -1.0172 H         1 <0>         0.0901
     40 H7          3.3744   -1.4781    1.4402 H         1 <0>         0.0553
     41 H8          3.7428   -2.7200    0.2212 H         1 <0>         0.1022
     42 H9          3.7694    0.3563   -2.7165 H         1 <0>         0.1532
     43 H10         4.6559    1.9706   -4.3509 H         1 <0>         0.1543
     44 H11         5.5332    4.6923   -1.1866 H         1 <0>         0.1556
     45 H12         4.6389    3.0813    0.4469 H         1 <0>         0.1483
     46 H13         5.9568   -0.0995   -0.8488 H         1 <0>         0.1139
     47 H14         5.7556   -0.9200    0.7179 H         1 <0>         0.0648
     48 H15         6.2080   -1.6405   -3.0278 H         1 <0>         0.1582
     49 H16         6.7619   -4.2526   -3.3523 H         1 <0>         0.1628
     50 H17         6.0056   -5.6293    1.0358 H         1 <0>         0.4036
     51 H18         7.2928   -8.0521    0.0354 H         1 <0>         0.0923
     52 H19         4.3656   -8.0397    0.9003 H         1 <0>         0.0641
     53 H20         4.9572   -8.3099   -0.7566 H         1 <0>         0.0683
     54 H21         4.4757  -10.4613    0.3784 H         1 <0>         0.0667
     55 H22         6.2114  -10.3044    0.0165 H         1 <0>         0.0659
     56 H23         4.8901   -9.6924    2.6991 H         1 <0>         0.0628
     57 H24         5.8553  -11.1401    2.3238 H         1 <0>         0.0658
     58 H25         7.2257   -9.4347    3.4911 H         1 <0>         0.0690
     59 H26         7.8173   -9.7049    1.8342 H         1 <0>         0.0666
     60 H27         7.7072   -7.2833    2.3561 H         1 <0>         0.0698
     61 H28         5.9715   -7.4402    2.7180 H         1 <0>         0.0686
@<TRIPOS>BOND
     1    1    5 2
     2    1    2 1
     3    1   35 1
     4    2    3 2
     5    2   36 1
     6    3    9 1
     7    3    4 1
     8    4    5 1
     9    4    6 1
    10    5   37 1
    11    6    7 1
    12    6   38 1
    13    6   39 1
    14    7    8 1
    15    7   40 1
    16    7   41 1
    17    8    9 1
    18    8   20 1
    19    9   10 1
    20    9   11 1
    21   11   16 ar
    22   11   12 ar
    23   12   13 ar
    24   12   42 1
    25   13   14 ar
    26   13   43 1
    27   14   15 ar
    28   14   17 1
    29   15   16 ar
    30   15   44 1
    31   16   45 1
    32   17   18 2
    33   17   19 1
    34   20   21 1
    35   20   46 1
    36   20   47 1
    37   21   25 1
    38   21   22 2
    39   22   23 1
    40   22   48 1
    41   23   24 2
    42   23   49 1
    43   24   25 1
    44   24   26 1
    45   26   27 2
    46   26   28 am
    47   28   29 1
    48   28   50 1
    49   29   34 1
    50   29   30 1
    51   29   51 1
    52   30   31 1
    53   30   52 1
    54   30   53 1
    55   31   32 1
    56   31   54 1
    57   31   55 1
    58   32   33 1
    59   32   56 1
    60   32   57 1
    61   33   34 1
    62   33   58 1
    63   33   59 1
    64   34   60 1
    65   34   61 1
@<TRIPOS>MOLECULE
ZINC20288432
   58    61     0     0     0
SMALL
USER_CHARGES

@<TRIPOS>ATOM
      1 C1         -0.6675    1.4276    0.0865 C.3       1 <0>        -0.1553
      2 C2         -0.3329   -0.0411    0.0411 C.2       1 <0>         0.3730
      3 C3         -0.0312   -0.7173    1.2077 C.2       1 <0>        -0.4085
      4 C4          0.1428   -0.1394    2.5554 C.2       1 <0>         0.2243
      5 N1          0.4186   -1.1283    3.3663 N.2       1 <0>        -0.2627
      6 N2          0.4438   -2.3344    2.6639 N.am      1 <0>        -0.4067
      7 C5          0.1707   -2.1171    1.3631 C.2       1 <0>         0.5407
      8 O1          0.1109   -2.9605    0.4840 O.2       1 <0>        -0.5399
      9 C6          0.7090   -3.5870    3.2297 C.ar      1 <0>         0.2396
     10 C7          0.7141   -4.7240    2.4320 C.ar      1 <0>        -0.1571
     11 C8          0.9761   -5.9583    2.9934 C.ar      1 <0>        -0.0244
     12 C9          1.2332   -6.0629    4.3482 C.ar      1 <0>        -0.0789
     13 C10         1.2284   -4.9329    5.1452 C.ar      1 <0>        -0.0284
     14 C11         0.9732   -3.6948    4.5890 C.ar      1 <0>        -0.1388
     15 N3          1.5136   -7.3877    4.9466 N.pl3     1 <0>         0.0391
     16 O2          1.5177   -8.3765    4.2510 O.2       1 <0>        -0.1642
     17 O3          1.7385   -7.4806    6.1308 O.3       1 <0>        -0.1634
     18 C12         0.0272    1.2914    2.9206 C.ar      1 <0>        -0.0704
     19 C13        -0.9577    1.7069    3.8170 C.ar      1 <0>        -0.0441
     20 C14        -1.0621    3.0394    4.1550 C.ar      1 <0>        -0.1493
     21 C15        -0.1883    3.9676    3.6043 C.ar      1 <0>         0.1452
     22 C16         0.7932    3.5575    2.7117 C.ar      1 <0>        -0.2086
     23 C17         0.9067    2.2259    2.3734 C.ar      1 <0>        -0.0502
     24 O4         -0.2943    5.2800    3.9393 O.3       1 <0>        -0.3134
     25 C18         0.6367    6.1807    3.3359 C.3       1 <0>         0.0244
     26 N4         -0.3278   -0.6958   -1.1390 N.pl3     1 <0>        -0.6636
     27 C19        -0.6477    0.0212   -2.3759 C.3       1 <0>         0.0967
     28 C20        -0.5710   -0.9449   -3.5598 C.3       1 <0>        -0.0928
     29 C21        -0.9000   -0.2073   -4.8321 C.ar      1 <0>        -0.0998
     30 C22        -2.2097   -0.1328   -5.2683 C.ar      1 <0>        -0.0824
     31 C23        -2.5127    0.5437   -6.4347 C.ar      1 <0>        -0.1506
     32 C24        -1.5039    1.1469   -7.1665 C.ar      1 <0>         0.1026
     33 C25        -0.1925    1.0716   -6.7287 C.ar      1 <0>        -0.1508
     34 C26         0.1074    0.3990   -5.5592 C.ar      1 <0>        -0.0825
     35 F1         -1.7988    1.8081   -8.3071 F         1 <0>        -0.1367
     36 H1          0.2512    2.0115    0.0310 H         1 <0>         0.1075
     37 H2         -1.3100    1.6801   -0.7571 H         1 <0>         0.0890
     38 H3         -1.1859    1.6535    1.0183 H         1 <0>         0.1079
     39 H4          0.5131   -4.6430    1.3740 H         1 <0>         0.1754
     40 H5          0.9799   -6.8428    2.3737 H         1 <0>         0.1584
     41 H6          1.4288   -5.0180    6.2031 H         1 <0>         0.1585
     42 H7          0.9743   -2.8120    5.2112 H         1 <0>         0.1577
     43 H8         -1.6378    0.9855    4.2453 H         1 <0>         0.1361
     44 H9         -1.8246    3.3617    4.8486 H         1 <0>         0.1387
     45 H10         1.4712    4.2821    2.2853 H         1 <0>         0.1356
     46 H11         1.6732    1.9070    1.6825 H         1 <0>         0.1301
     47 H12         1.6515    5.8902    3.6076 H         1 <0>         0.0586
     48 H13         0.5263    6.1452    2.2521 H         1 <0>         0.0582
     49 H14         0.4423    7.1938    3.6880 H         1 <0>         0.1032
     50 H15        -0.1124   -1.6411   -1.1682 H         1 <0>         0.4265
     51 H16        -1.6547    0.4326   -2.3073 H         1 <0>         0.0870
     52 H17         0.0667    0.8315   -2.5212 H         1 <0>         0.0871
     53 H18         0.4361   -1.3563   -3.6284 H         1 <0>         0.0880
     54 H19        -1.2854   -1.7552   -3.4144 H         1 <0>         0.0885
     55 H20        -2.9963   -0.6037   -4.6975 H         1 <0>         0.1345
     56 H21        -3.5359    0.6015   -6.7754 H         1 <0>         0.1385
     57 H22         0.5952    1.5415   -7.2988 H         1 <0>         0.1384
     58 H23         1.1297    0.3440   -5.2151 H         1 <0>         0.1344
@<TRIPOS>BOND
     1    1    2 1
     2    1   36 1
     3    1   37 1
     4    1   38 1
     5    2    3 2
     6    2   26 1
     7    3    7 1
     8    3    4 1
     9    4    5 2
    10    4   18 1
    11    5    6 1
    12    6    7 am
    13    6    9 1
    14    7    8 2
    15    9   14 ar
    16    9   10 ar
    17   10   11 ar
    18   10   39 1
    19   11   12 ar
    20   11   40 1
    21   12   13 ar
    22   12   15 1
    23   13   14 ar
    24   13   41 1
    25   14   42 1
    26   15   16 2
    27   15   17 1
    28   18   23 ar
    29   18   19 ar
    30   19   20 ar
    31   19   43 1
    32   20   21 ar
    33   20   44 1
    34   21   22 ar
    35   21   24 1
    36   22   23 ar
    37   22   45 1
    38   23   46 1
    39   24   25 1
    40   25   47 1
    41   25   48 1
    42   25   49 1
    43   26   27 1
    44   26   50 1
    45   27   28 1
    46   27   51 1
    47   27   52 1
    48   28   29 1
    49   28   53 1
    50   28   54 1
    51   29   34 ar
    52   29   30 ar
    53   30   31 ar
    54   30   55 1
    55   31   32 ar
    56   31   56 1
    57   32   33 ar
    58   32   35 1
    59   33   34 ar
    60   33   57 1
    61   34   58 1
@<TRIPOS>MOLECULE
ZINC01404704
   53    57     0     0     0
SMALL
USER_CHARGES
3-(4-bromophenyl)-8-(4-ethoxyphenyl)-2-(4-nitrophenyl)-3,6,7-triazabicyclo[3.3.0]octa-7,9-dien-4-one
@<TRIPOS>ATOM
      1 C1          4.2190   -2.5221    6.9587 C.3       1 <0>        -0.1546
      2 C2          3.2819   -2.0266    5.8555 C.3       1 <0>         0.0532
      3 O1          2.7259   -0.7656    6.2335 O.3       1 <0>        -0.3130
      4 C3          1.8659   -0.1831    5.3575 C.ar      1 <0>         0.1463
      5 C4          1.2901    1.0425    5.6632 C.ar      1 <0>        -0.1506
      6 C5          0.4168    1.6361    4.7758 C.ar      1 <0>        -0.0466
      7 C6          0.1127    1.0045    3.5717 C.ar      1 <0>        -0.0599
      8 C7          0.6880   -0.2282    3.2699 C.ar      1 <0>        -0.0546
      9 C8          1.5643   -0.8149    4.1588 C.ar      1 <0>        -0.2080
     10 C9         -0.8272    1.6406    2.6149 C.2       1 <0>         0.1317
     11 C10        -0.7491    1.5870    1.2201 C.2       1 <0>        -0.1780
     12 C11        -1.8279    2.3171    0.7545 C.2       1 <0>        -0.0553
     13 N1         -2.4882    2.7663    1.8628 N.pl3     1 <0>        -0.3276
     14 H1         -3.3157    3.3276    1.8501 H         1 <0>         0.4646
     15 N2         -1.8878    2.3603    2.9244 N.2       1 <0>        -0.2357
     16 C12        -1.8049    2.3005   -0.7120 C.2       1 <0>         0.6012
     17 O2         -2.6205    2.8531   -1.4254 O.2       1 <0>        -0.4868
     18 N3         -0.7541    1.5877   -1.1562 N.am      1 <0>        -0.5402
     19 C13        -0.0127    1.0858    0.0080 C.3       1 <0>         0.2446
     20 H2          0.0021   -0.0041    0.0020 H         1 <0>         0.1274
     21 C14         1.3952    1.6232   -0.0025 C.ar      1 <0>        -0.0476
     22 C15         1.6383    2.9163   -0.4265 C.ar      1 <0>        -0.0929
     23 C16         2.9291    3.4110   -0.4311 C.ar      1 <0>        -0.0475
     24 C17         3.9782    2.6088   -0.0227 C.ar      1 <0>        -0.0341
     25 C18         3.7357    1.3140    0.3963 C.ar      1 <0>        -0.0470
     26 C19         2.4442    0.8212    0.4063 C.ar      1 <0>        -0.0990
     27 N4          5.3611    3.1365   -0.0335 N.pl3     1 <0>         0.0250
     28 O3          6.2854    2.4298    0.3268 O.2       1 <0>        -0.1525
     29 O4          5.5747    4.2773   -0.4026 O.3       1 <0>        -0.1546
     30 C20        -0.4238    1.3637   -2.4968 C.ar      1 <0>         0.1878
     31 C21         0.6976    0.6110   -2.8206 C.ar      1 <0>        -0.1460
     32 C22         1.0183    0.3870   -4.1451 C.ar      1 <0>        -0.0587
     33 C23         0.2298    0.9209   -5.1490 C.ar      1 <0>        -0.1102
     34 C24        -0.8850    1.6755   -4.8293 C.ar      1 <0>        -0.0570
     35 C25        -1.2135    1.8983   -3.5066 C.ar      1 <0>        -0.1439
     36 Br1         0.6763    0.6179   -6.9614 Br        1 <0>        -0.0430
     37 H3          3.6593   -2.6355    7.8872 H         1 <0>         0.0673
     38 H4          4.6430   -3.4840    6.6704 H         1 <0>         0.0804
     39 H5          5.0223   -1.8000    7.1046 H         1 <0>         0.0678
     40 H6          2.4786   -2.7488    5.7096 H         1 <0>         0.0640
     41 H7          3.8416   -1.9133    4.9271 H         1 <0>         0.0644
     42 H8          1.5265    1.5318    6.5965 H         1 <0>         0.1366
     43 H9         -0.0311    2.5895    5.0143 H         1 <0>         0.1349
     44 H10         0.4508   -0.7219    2.3391 H         1 <0>         0.1254
     45 H11         2.0132   -1.7687    3.9239 H         1 <0>         0.1343
     46 H12         0.8192    3.5414   -0.7501 H         1 <0>         0.1397
     47 H13         3.1185    4.4227   -0.7581 H         1 <0>         0.1568
     48 H14         4.5553    0.6872    0.7154 H         1 <0>         0.1593
     49 H15         2.2548   -0.1906    0.7333 H         1 <0>         0.1522
     50 H16         1.3159    0.1978   -2.0374 H         1 <0>         0.1346
     51 H17         1.8878   -0.2016   -4.3975 H         1 <0>         0.1406
     52 H18        -1.4986    2.0910   -5.6150 H         1 <0>         0.1418
     53 H19        -2.0837    2.4875   -3.2576 H         1 <0>         0.1631
@<TRIPOS>BOND
     1    1    2 1
     2    1   37 1
     3    1   38 1
     4    1   39 1
     5    2    3 1
     6    2   40 1
     7    2   41 1
     8    3    4 1
     9    4    9 ar
    10    4    5 ar
    11    5    6 ar
    12    5   42 1
    13    6    7 ar
    14    6   43 1
    15    7    8 ar
    16    7   10 1
    17    8    9 ar
    18    8   44 1
    19    9   45 1
    20   10   15 2
    21   10   11 1
    22   11   19 1
    23   11   12 2
    24   12   13 1
    25   12   16 1
    26   13   14 1
    27   13   15 1
    28   16   17 2
    29   16   18 am
    30   18   19 1
    31   18   30 1
    32   19   20 1
    33   19   21 1
    34   21   26 ar
    35   21   22 ar
    36   22   23 ar
    37   22   46 1
    38   23   24 ar
    39   23   47 1
    40   24   25 ar
    41   24   27 1
    42   25   26 ar
    43   25   48 1
    44   26   49 1
    45   27   28 2
    46   27   29 1
    47   30   35 ar
    48   30   31 ar
    49   31   32 ar
    50   31   50 1
    51   32   33 ar
    52   32   51 1
    53   33   34 ar
    54   33   36 1
    55   34   35 ar
    56   34   52 1
    57   35   53 1
@<TRIPOS>MOLECULE
ZINC10079380
   67    71     0     0     0
SMALL
USER_CHARGES
1-benzooxazol-2-yl-N-[4-(cyclohexyl-methyl-sulfamoyl)phenyl]-piperidine-4-carboxamide
@<TRIPOS>ATOM
      1 C1         -1.6862    6.6144   -2.0410 C.3       1 <0>         0.0902
      2 N1         -0.3212    6.4131   -1.5484 N.pl3     1 <0>        -0.9957
      3 C2          0.8199    6.6449   -2.4374 C.3       1 <0>         0.1462
      4 C3          0.8091    8.0992   -2.9125 C.3       1 <0>        -0.1253
      5 C4          2.0009    8.3413   -3.8409 C.3       1 <0>        -0.1198
      6 C5          1.9031    7.4089   -5.0501 C.3       1 <0>        -0.1222
      7 C6          1.9139    5.9546   -4.5749 C.3       1 <0>        -0.1192
      8 C7          0.7221    5.7126   -3.6465 C.3       1 <0>        -0.1300
      9 S1         -0.0683    5.9236    0.0132 S.o2      1 <0>         2.6892
     10 O1         -1.2170    6.3148    0.7526 O.2       1 <0>        -0.9535
     11 O2          1.2429    6.3447    0.3635 O.2       1 <0>        -0.9531
     12 C8         -0.0473    4.1618    0.0100 C.ar      1 <0>        -0.6942
     13 C9          1.1445    3.4863   -0.1785 C.ar      1 <0>         0.0024
     14 C10         1.1642    2.1053   -0.1815 C.ar      1 <0>        -0.1433
     15 C11        -0.0145    1.3951    0.0045 C.ar      1 <0>         0.2047
     16 C12        -1.2108    2.0764    0.1873 C.ar      1 <0>        -0.1669
     17 C13        -1.2228    3.4575    0.1955 C.ar      1 <0>         0.0018
     18 N2          0.0021   -0.0041    0.0020 N.am      1 <0>        -0.6770
     19 C14         1.0736   -0.6661    0.4815 C.2       1 <0>         0.5220
     20 O3          1.9818   -0.0536    1.0022 O.2       1 <0>        -0.5029
     21 C15         1.1433   -2.1674    0.3708 C.3       1 <0>        -0.1117
     22 C16        -0.0354   -2.7913    1.1230 C.3       1 <0>        -0.1113
     23 C17         0.0743   -4.3164    1.0586 C.3       1 <0>         0.0624
     24 N3          1.3437   -4.7430    1.6611 N.pl3     1 <0>        -0.4224
     25 C18         2.4909   -4.1944    0.9268 C.3       1 <0>         0.0479
     26 C19         2.4534   -2.6657    0.9873 C.3       1 <0>        -0.0982
     27 C20         1.4171   -6.1154    1.7370 C.2       1 <0>         0.4235
     28 N4          0.5376   -6.8817    2.3302 N.2       1 <0>        -0.4888
     29 C21         0.9338   -8.1782    2.2053 C.ar      1 <0>         0.0411
     30 C22         0.3986   -9.3946    2.6313 C.ar      1 <0>        -0.0685
     31 C23         1.0558  -10.5698    2.3396 C.ar      1 <0>        -0.1130
     32 C24         2.2441  -10.5503    1.6257 C.ar      1 <0>        -0.0994
     33 C25         2.7845   -9.3540    1.1989 C.ar      1 <0>        -0.0875
     34 C26         2.1366   -8.1630    1.4837 C.ar      1 <0>         0.0026
     35 O4          2.3999   -6.8649    1.2076 O.3       1 <0>        -0.2339
     36 H1         -1.9889    7.6460   -1.8612 H         1 <0>         0.0624
     37 H2         -1.7209    6.4067   -3.1104 H         1 <0>         0.0762
     38 H3         -2.3644    5.9403   -1.5177 H         1 <0>         0.0712
     39 H4          1.7464    6.4455   -1.8988 H         1 <0>         0.1009
     40 H5         -0.1173    8.2986   -3.4511 H         1 <0>         0.0696
     41 H6          0.8789    8.7634   -2.0511 H         1 <0>         0.0689
     42 H7          2.9274    8.1418   -3.3024 H         1 <0>         0.0664
     43 H8          1.9932    9.3773   -4.1795 H         1 <0>         0.0675
     44 H9          2.7521    7.5814   -5.7115 H         1 <0>         0.0642
     45 H10         0.9766    7.6084   -5.5886 H         1 <0>         0.0627
     46 H11         2.8403    5.7552   -4.0364 H         1 <0>         0.0654
     47 H12         1.8441    5.2904   -5.4364 H         1 <0>         0.0660
     48 H13         0.7298    4.6765   -3.3080 H         1 <0>         0.0660
     49 H14        -0.2044    5.9120   -4.1851 H         1 <0>         0.0706
     50 H15         2.0609    4.0392   -0.3231 H         1 <0>         0.1428
     51 H16         2.0954    1.5783   -0.3288 H         1 <0>         0.1440
     52 H17        -2.1299    1.5269    0.3275 H         1 <0>         0.1373
     53 H18        -2.1520    3.9880    0.3425 H         1 <0>         0.1440
     54 H19        -0.7576   -0.4975   -0.3448 H         1 <0>         0.4152
     55 H20         1.1013   -2.4576   -0.6791 H         1 <0>         0.1072
     56 H21        -0.0146   -2.4686    2.1639 H         1 <0>         0.0899
     57 H22        -0.9706   -2.4739    0.6616 H         1 <0>         0.0871
     58 H23         0.0396   -4.6394    0.0181 H         1 <0>         0.0576
     59 H24        -0.7558   -4.7635    1.6055 H         1 <0>         0.1079
     60 H25         2.4449   -4.5180   -0.1131 H         1 <0>         0.0611
     61 H26         3.4161   -4.5531    1.3779 H         1 <0>         0.0985
     62 H27         3.2963   -2.2586    0.4290 H         1 <0>         0.0910
     63 H28         2.5136   -2.3405    2.0259 H         1 <0>         0.0903
     64 H29        -0.5272   -9.4146    3.1871 H         1 <0>         0.1369
     65 H30         0.6427  -11.5118    2.6688 H         1 <0>         0.1387
     66 H31         2.7507  -11.4775    1.4023 H         1 <0>         0.1414
     67 H32         3.7107   -9.3465    0.6436 H         1 <0>         0.1347
@<TRIPOS>BOND
     1    1    2 1
     2    1   36 1
     3    1   37 1
     4    1   38 1
     5    2    3 1
     6    2    9 1
     7    3    8 1
     8    3    4 1
     9    3   39 1
    10    4    5 1
    11    4   40 1
    12    4   41 1
    13    5    6 1
    14    5   42 1
    15    5   43 1
    16    6    7 1
    17    6   44 1
    18    6   45 1
    19    7    8 1
    20    7   46 1
    21    7   47 1
    22    8   48 1
    23    8   49 1
    24    9   10 2
    25    9   11 2
    26    9   12 1
    27   12   17 ar
    28   12   13 ar
    29   13   14 ar
    30   13   50 1
    31   14   15 ar
    32   14   51 1
    33   15   16 ar
    34   15   18 1
    35   16   17 ar
    36   16   52 1
    37   17   53 1
    38   18   19 am
    39   18   54 1
    40   19   20 2
    41   19   21 1
    42   21   26 1
    43   21   22 1
    44   21   55 1
    45   22   23 1
    46   22   56 1
    47   22   57 1
    48   23   24 1
    49   23   58 1
    50   23   59 1
    51   24   25 1
    52   24   27 1
    53   25   26 1
    54   25   60 1
    55   25   61 1
    56   26   62 1
    57   26   63 1
    58   27   35 1
    59   27   28 2
    60   28   29 1
    61   29   34 ar
    62   29   30 ar
    63   30   31 ar
    64   30   64 1
    65   31   32 ar
    66   31   65 1
    67   32   33 ar
    68   32   66 1
    69   33   34 ar
    70   33   67 1
    71   34   35 1
@<TRIPOS>MOLECULE
ZINC13680505
   49    51     0     0     0
SMALL
USER_CHARGES
(3R)-N-(2-chloro-5-nitro-phenyl)-1-[(2,6-dichlorophenyl)methylsulfonyl]piperidine-3-carboxamide
@<TRIPOS>ATOM
      1 C1          7.2941   -7.4018   -3.8972 C.ar      1 <0>        -0.0829
      2 C2          7.2542   -6.0213   -3.9534 C.ar      1 <0>        -0.1025
      3 C3          6.5386   -5.3105   -3.0062 C.ar      1 <0>        -0.0162
      4 C4          5.8631   -5.9817   -2.0029 C.ar      1 <0>        -0.0788
      5 C5          5.9081   -7.3630   -1.9438 C.ar      1 <0>        -0.0155
      6 C6          6.6197   -8.0730   -2.8946 C.ar      1 <0>        -0.1028
      7 Cl1         5.0665   -8.2059   -0.6809 Cl        1 <0>        -0.0386
      8 C7          5.0836   -5.2081   -0.9710 C.3       1 <0>        -0.6007
      9 S1          3.3791   -4.9784   -1.5478 S.o2      1 <0>         2.6022
     10 O1          2.7013   -6.2268   -1.5815 O.2       1 <0>        -0.9326
     11 O2          3.3560   -4.1109   -2.6731 O.2       1 <0>        -0.9330
     12 N1          2.6328   -4.1248   -0.3409 N.pl3     1 <0>        -0.9982
     13 C8          1.9598   -4.8222    0.7634 C.3       1 <0>         0.1092
     14 C9          0.5214   -4.3059    0.8689 C.3       1 <0>        -0.1292
     15 C10         0.5395   -2.7818    1.0063 C.3       1 <0>        -0.1136
     16 C11         1.1847   -2.1635   -0.2361 C.3       1 <0>        -0.1169
     17 H1          0.6256   -2.4611   -1.1233 H         1 <0>         0.1147
     18 C12         2.6306   -2.6556   -0.3542 C.3       1 <0>         0.1332
     19 C13         1.1728   -0.6615   -0.1144 C.2       1 <0>         0.5268
     20 O3          2.2169   -0.0443   -0.1213 O.2       1 <0>        -0.5045
     21 N2          0.0021   -0.0041    0.0020 N.am      1 <0>        -0.6685
     22 C14        -0.0159    1.3955    0.0208 C.ar      1 <0>         0.1606
     23 C15         1.0220    2.0967    0.6201 C.ar      1 <0>        -0.0511
     24 C16         1.0018    3.4776    0.6367 C.ar      1 <0>        -0.0212
     25 C17        -0.0506    4.1626    0.0573 C.ar      1 <0>        -0.0577
     26 C18        -1.0863    3.4683   -0.5401 C.ar      1 <0>        -0.0868
     27 C19        -1.0695    2.0863   -0.5652 C.ar      1 <0>        -0.0220
     28 Cl2        -2.3661    1.2149   -1.3222 Cl        1 <0>        -0.0297
     29 N3          2.1078    4.2253    1.2758 N.pl3     1 <0>         0.0256
     30 O4          3.0349    3.6228    1.7867 O.2       1 <0>        -0.1459
     31 O5          2.0908    5.4431    1.2909 O.3       1 <0>        -0.1492
     32 Cl3         6.4882   -3.5767   -3.0773 Cl        1 <0>        -0.0357
     33 H2          7.8527   -7.9562   -4.6368 H         1 <0>         0.1504
     34 H3          7.7819   -5.4974   -4.7366 H         1 <0>         0.1491
     35 H4          6.6512   -9.1517   -2.8513 H         1 <0>         0.1490
     36 H5          5.5497   -4.2348   -0.8179 H         1 <0>         0.1502
     37 H6          5.0777   -5.7600   -0.0310 H         1 <0>         0.1497
     38 H7          1.9497   -5.8942    0.5663 H         1 <0>         0.1000
     39 H8          2.4882   -4.6250    1.6962 H         1 <0>         0.0756
     40 H9         -0.0316   -4.5838   -0.0284 H         1 <0>         0.0754
     41 H10         0.0407   -4.7443    1.7434 H         1 <0>         0.0872
     42 H11         1.1136   -2.5037    1.8901 H         1 <0>         0.0784
     43 H12        -0.4817   -2.4140    1.1063 H         1 <0>         0.0736
     44 H13         3.0632   -2.2980   -1.2886 H         1 <0>         0.1049
     45 H14         3.2143   -2.2796    0.4861 H         1 <0>         0.0864
     46 H15        -0.8281   -0.5007    0.0728 H         1 <0>         0.4206
     47 H16         1.8446    1.5627    1.0725 H         1 <0>         0.1794
     48 H17        -0.0637    5.2425    0.0718 H         1 <0>         0.1666
     49 H18        -1.9067    4.0062   -0.9917 H         1 <0>         0.1648
@<TRIPOS>BOND
     1    1    6 ar
     2    1    2 ar
     3    1   33 1
     4    2    3 ar
     5    2   34 1
     6    3    4 ar
     7    3   32 1
     8    4    5 ar
     9    4    8 1
    10    5    6 ar
    11    5    7 1
    12    6   35 1
    13    8    9 1
    14    8   36 1
    15    8   37 1
    16    9   10 2
    17    9   11 2
    18    9   12 1
    19   12   18 1
    20   12   13 1
    21   13   14 1
    22   13   38 1
    23   13   39 1
    24   14   15 1
    25   14   40 1
    26   14   41 1
    27   15   16 1
    28   15   42 1
    29   15   43 1
    30   16   17 1
    31   16   18 1
    32   16   19 1
    33   18   44 1
    34   18   45 1
    35   19   20 2
    36   19   21 am
    37   21   22 1
    38   21   46 1
    39   22   27 ar
    40   22   23 ar
    41   23   24 ar
    42   23   47 1
    43   24   25 ar
    44   24   29 1
    45   25   26 ar
    46   25   48 1
    47   26   27 ar
    48   26   49 1
    49   27   28 1
    50   29   30 2
    51   29   31 1
@<TRIPOS>MOLECULE
ZINC23564288
   56    59     0     0     0
SMALL
USER_CHARGES
2-[3-(2,5-dimethylphenyl)-4-oxo-quinazolin-2-yl]sulfanyl-N-(2-methyl-6-nitro-phenyl)acetamide
@<TRIPOS>ATOM
      1 C1         -1.2212   -3.6235    6.7031 C.3       1 <0>        -0.1182
      2 C2         -0.8950   -3.9029    5.2586 C.ar      1 <0>        -0.0805
      3 C3         -0.7772   -5.2082    4.8170 C.ar      1 <0>        -0.0925
      4 C4         -0.4786   -5.4686    3.4924 C.ar      1 <0>        -0.1088
      5 C5         -0.3021   -4.4251    2.6046 C.ar      1 <0>        -0.0574
      6 C6         -0.4146   -3.1136    3.0460 C.ar      1 <0>         0.0899
      7 C7         -0.7146   -2.8553    4.3771 C.ar      1 <0>        -0.0851
      8 N1         -0.2314   -2.0531    2.1492 N.am      1 <0>        -0.4810
      9 C8          1.0031   -1.5272    1.9745 C.2       1 <0>         0.5548
     10 O1          1.9646   -1.9583    2.5842 O.2       1 <0>        -0.4904
     11 C9          1.1405   -0.4169    1.0229 C.ar      1 <0>        -0.1988
     12 C10         2.3697    0.1922    0.7738 C.ar      1 <0>        -0.0377
     13 C11         2.4417    1.2229   -0.1222 C.ar      1 <0>        -0.1387
     14 C12         1.3051    1.6680   -0.7850 C.ar      1 <0>        -0.0682
     15 C13         0.0879    1.0893   -0.5600 C.ar      1 <0>        -0.1118
     16 C14        -0.0184    0.0335    0.3501 C.ar      1 <0>         0.1663
     17 N2         -1.2040   -0.5681    0.6034 N.2       1 <0>        -0.5306
     18 C15        -1.3018   -1.5570    1.4574 C.2       1 <0>         0.3594
     19 S1         -2.8854   -2.2811    1.7269 S.3       1 <0>         0.0956
     20 C16        -3.8858   -1.2771    0.6012 C.3       1 <0>        -0.1557
     21 C17        -5.3216   -1.7304    0.6653 C.2       1 <0>         0.5388
     22 O2         -5.6374   -2.6424    1.3998 O.2       1 <0>        -0.4992
     23 N3         -6.2547   -1.1223   -0.0936 N.am      1 <0>        -0.6743
     24 C18        -7.5673   -1.6070   -0.1106 C.ar      1 <0>         0.2120
     25 C19        -7.8099   -2.9498   -0.3697 C.ar      1 <0>        -0.0762
     26 C20        -9.1064   -3.4251   -0.3854 C.ar      1 <0>        -0.0539
     27 C21       -10.1626   -2.5656   -0.1434 C.ar      1 <0>        -0.1192
     28 C22        -9.9243   -1.2284    0.1148 C.ar      1 <0>        -0.0496
     29 C23        -8.6295   -0.7477    0.1371 C.ar      1 <0>        -0.0577
     30 N4         -8.3749    0.6827    0.4197 N.pl3     1 <0>         0.0352
     31 O3         -9.3085    1.4573    0.5292 O.2       1 <0>        -0.1548
     32 O4         -7.2319    1.0852    0.5428 O.3       1 <0>        -0.1662
     33 C24        -6.6597   -3.8869   -0.6340 C.3       1 <0>        -0.1467
     34 C25         0.0173   -4.7099    1.1596 C.3       1 <0>        -0.1204
     35 H1         -1.3275   -4.5745    7.2455 H         1 <0>         0.0708
     36 H2         -2.1636   -3.0595    6.7637 H         1 <0>         0.0741
     37 H3         -0.4105   -3.0326    7.1544 H         1 <0>         0.0726
     38 H4         -0.9191   -6.0258    5.5082 H         1 <0>         0.1320
     39 H5         -0.3872   -6.4890    3.1505 H         1 <0>         0.1344
     40 H6         -0.8064   -1.8362    4.7226 H         1 <0>         0.1270
     41 H7          3.2585   -0.1472    1.2850 H         1 <0>         0.1379
     42 H8          3.3928    1.6960   -0.3165 H         1 <0>         0.1343
     43 H9          1.3846    2.4833   -1.4889 H         1 <0>         0.1355
     44 H10        -0.7867    1.4428   -1.0859 H         1 <0>         0.1401
     45 H11        -3.8215   -0.2197    0.8976 H         1 <0>         0.1414
     46 H12        -3.5100   -1.3934   -0.4261 H         1 <0>         0.1372
     47 H13        -5.9845   -0.2450   -0.6996 H         1 <0>         0.4514
     48 H14        -9.2958   -4.4690   -0.5871 H         1 <0>         0.1475
     49 H15       -11.1756   -2.9397   -0.1566 H         1 <0>         0.1514
     50 H16       -10.7512   -0.5597    0.3030 H         1 <0>         0.1578
     51 H17        -7.0469   -4.9002   -0.8166 H         1 <0>         0.0739
     52 H18        -5.9908   -3.9018    0.2391 H         1 <0>         0.1153
     53 H19        -6.1019   -3.5427   -1.5174 H         1 <0>         0.0713
     54 H20         0.1210   -3.7609    0.6131 H         1 <0>         0.0548
     55 H21        -0.7954   -5.3025    0.7144 H         1 <0>         0.0820
     56 H22         0.9595   -5.2741    1.0967 H         1 <0>         0.0788
@<TRIPOS>BOND
     1    1    2 1
     2    1   35 1
     3    1   36 1
     4    1   37 1
     5    2    7 ar
     6    2    3 ar
     7    3    4 ar
     8    3   38 1
     9    4    5 ar
    10    4   39 1
    11    5    6 ar
    12    5   34 1
    13    6    7 ar
    14    6    8 1
    15    7   40 1
    16    8   18 1
    17    8    9 am
    18    9   10 2
    19    9   11 1
    20   11   16 ar
    21   11   12 ar
    22   12   13 ar
    23   12   41 1
    24   13   14 ar
    25   13   42 1
    26   14   15 ar
    27   14   43 1
    28   15   16 ar
    29   15   44 1
    30   16   17 1
    31   17   18 2
    32   18   19 1
    33   19   20 1
    34   20   21 1
    35   20   45 1
    36   20   46 1
    37   21   22 2
    38   21   23 am
    39   23   24 1
    40   23   47 1
    41   24   29 ar
    42   24   25 ar
    43   25   26 ar
    44   25   33 1
    45   26   27 ar
    46   26   48 1
    47   27   28 ar
    48   27   49 1
    49   28   29 ar
    50   28   50 1
    51   29   30 1
    52   30   31 2
    53   30   32 1
    54   33   51 1
    55   33   52 1
    56   33   53 1
    57   34   54 1
    58   34   55 1
    59   34   56 1
@<TRIPOS>MOLECULE
ZINC33960683
   57    60     0     0     0
SMALL
USER_CHARGES

@<TRIPOS>ATOM
      1 C1         -0.0329    1.5255    0.0186 C.3       1 <0>        -0.1280
      2 C2         -0.0110   -0.0043    0.0096 C.3       1 <0>        -0.0023
      3 C3         -1.4023   -0.7046    0.0811 C.3       1 <0>        -0.1113
      4 C4         -1.0919   -2.1380    0.5704 C.3       1 <0>        -0.1133
      5 C5          0.4586   -2.1653    0.7382 C.3       1 <0>        -0.0957
      6 C6          0.7238   -0.6924    1.2134 C.3       1 <0>        -0.0264
      7 C7          2.2164   -0.3576    1.2437 C.3       1 <0>        -0.1458
      8 C8          0.0457   -0.3885    2.5509 C.3       1 <0>        -0.1415
      9 C9          1.0055   -2.0882   -0.7203 C.3       1 <0>        -0.1061
     10 C10         0.7093   -0.6562   -1.1791 C.2       1 <0>         0.1599
     11 N1          0.9812   -0.1218   -2.3096 N.2       1 <0>        -0.2785
     12 O1          1.6566   -0.8715   -3.3030 O.3       1 <0>        -0.2247
     13 C11         1.8809   -0.1920   -4.4441 C.2       1 <0>         0.5196
     14 O2          1.5108    0.9605   -4.5476 O.2       1 <0>        -0.4537
     15 C12         2.5767   -0.8479   -5.5693 C.ar      1 <0>        -0.1172
     16 C13         2.9984   -2.1748   -5.4554 C.ar      1 <0>        -0.0059
     17 C14         3.6475   -2.7816   -6.5094 C.ar      1 <0>        -0.1193
     18 C15         3.8823   -2.0780   -7.6796 C.ar      1 <0>         0.0429
     19 C16         3.4666   -0.7622   -7.7987 C.ar      1 <0>        -0.0553
     20 C17         2.8108   -0.1461   -6.7537 C.ar      1 <0>         0.0202
     21 N2          3.7214   -0.0178   -9.0524 N.pl3     1 <0>         0.0303
     22 O3          3.3591    1.1308   -9.1577 O.2       1 <0>        -0.1470
     23 O4          4.2918   -0.5583   -9.9712 O.3       1 <0>        -0.1258
     24 Cl1         4.7013   -2.8488   -9.0020 Cl        1 <0>         0.0132
     25 C18         1.0112   -3.2613    1.6124 C.2       1 <0>         0.5522
     26 O5          1.6359   -2.9816    2.6137 O.2       1 <0>        -0.4998
     27 N3          0.8112   -4.5525    1.2816 N.am      1 <0>        -0.6697
     28 C19         1.4056   -5.5694    2.0389 C.ar      1 <0>         0.1311
     29 C20         1.8518   -6.7284    1.4179 C.ar      1 <0>        -0.1145
     30 C21         2.4377   -7.7302    2.1666 C.ar      1 <0>        -0.1345
     31 C22         2.5798   -7.5796    3.5358 C.ar      1 <0>         0.0867
     32 C23         2.1355   -6.4246    4.1571 C.ar      1 <0>        -0.1344
     33 C24         1.5547   -5.4177    3.4111 C.ar      1 <0>        -0.0906
     34 F1          3.1524   -8.5611    4.2666 F         1 <0>        -0.1381
     35 H1          0.9893    1.9036    0.0035 H         1 <0>         0.0673
     36 H2         -0.5669    1.8865   -0.8604 H         1 <0>         0.0714
     37 H3         -0.5368    1.8763    0.9193 H         1 <0>         0.0734
     38 H4         -2.0498   -0.1919    0.7924 H         1 <0>         0.0920
     39 H5         -1.8655   -0.7315   -0.9052 H         1 <0>         0.0770
     40 H6         -1.5815   -2.3285    1.5255 H         1 <0>         0.0833
     41 H7         -1.4073   -2.8704   -0.1727 H         1 <0>         0.0776
     42 H8          2.3451    0.7180    1.3648 H         1 <0>         0.0653
     43 H9          2.6882   -0.8762    2.0783 H         1 <0>         0.0773
     44 H10         2.6792   -0.6760    0.3096 H         1 <0>         0.0503
     45 H11        -0.9895   -0.7282    2.5189 H         1 <0>         0.0627
     46 H12         0.5735   -0.9064    3.3517 H         1 <0>         0.0746
     47 H13         0.0701    0.6856    2.7348 H         1 <0>         0.0652
     48 H14         2.0812   -2.2640   -0.7317 H         1 <0>         0.0959
     49 H15         0.4953   -2.8124   -1.3554 H         1 <0>         0.0985
     50 H16         2.8166   -2.7240   -4.5434 H         1 <0>         0.1647
     51 H17         3.9740   -3.8073   -6.4226 H         1 <0>         0.1693
     52 H18         2.4829    0.8785   -6.8495 H         1 <0>         0.1788
     53 H19         0.2556   -4.7773    0.5190 H         1 <0>         0.4124
     54 H20         1.7405   -6.8465    0.3502 H         1 <0>         0.1359
     55 H21         2.7849   -8.6318    1.6840 H         1 <0>         0.1406
     56 H22         2.2470   -6.3092    5.2251 H         1 <0>         0.1403
     57 H23         1.2123   -4.5152    3.8953 H         1 <0>         0.1498
@<TRIPOS>BOND
     1    1    2 1
     2    1   35 1
     3    1   36 1
     4    1   37 1
     5    2    6 1
     6    2   10 1
     7    2    3 1
     8    3    4 1
     9    3   38 1
    10    3   39 1
    11    4    5 1
    12    4   40 1
    13    4   41 1
    14    5    6 1
    15    5    9 1
    16    5   25 1
    17    6    7 1
    18    6    8 1
    19    7   42 1
    20    7   43 1
    21    7   44 1
    22    8   45 1
    23    8   46 1
    24    8   47 1
    25    9   10 1
    26    9   48 1
    27    9   49 1
    28   10   11 2
    29   11   12 1
    30   12   13 1
    31   13   14 2
    32   13   15 1
    33   15   20 ar
    34   15   16 ar
    35   16   17 ar
    36   16   50 1
    37   17   18 ar
    38   17   51 1
    39   18   19 ar
    40   18   24 1
    41   19   20 ar
    42   19   21 1
    43   20   52 1
    44   21   22 2
    45   21   23 1
    46   25   26 2
    47   25   27 am
    48   27   28 1
    49   27   53 1
    50   28   33 ar
    51   28   29 ar
    52   29   30 ar
    53   29   54 1
    54   30   31 ar
    55   30   55 1
    56   31   32 ar
    57   31   34 1
    58   32   33 ar
    59   32   56 1
    60   33   57 1
@<TRIPOS>MOLECULE
ZINC02764621
   41    43     0     0     0
SMALL
USER_CHARGES
5-[(4-chloro-5-methyl-3-nitro-pyrazol-1-yl)methyl]-N-(3-fluoro-4-methyl-phenyl)-furan-2-carboxamide
@<TRIPOS>ATOM
      1 C1          8.8858    0.8101    0.3543 C.3       1 <0>        -0.1154
      2 C2          7.4435    1.2355    0.2551 C.ar      1 <0>        -0.1277
      3 C3          7.0279    2.4106    0.8538 C.ar      1 <0>        -0.0721
      4 C4          5.7081    2.8060    0.7608 C.ar      1 <0>        -0.1441
      5 C5          4.7939    2.0173    0.0735 C.ar      1 <0>         0.1607
      6 C6          5.2123    0.8379   -0.5276 C.ar      1 <0>        -0.1527
      7 C7          6.5368    0.4491   -0.4359 C.ar      1 <0>         0.1167
      8 F1          6.9459   -0.6983   -1.0202 F         1 <0>        -0.1319
      9 N1          3.4561    2.4136   -0.0176 N.am      1 <0>        -0.6596
     10 C8          2.4770    1.4874   -0.0111 C.2       1 <0>         0.6047
     11 O1          2.7592    0.3035   -0.0108 O.2       1 <0>        -0.4891
     12 C9          1.0718    1.9061   -0.0044 C.2       1 <0>        -0.0573
     13 C10        -0.0128    1.0763    0.0025 C.2       1 <0>        -0.1121
     14 C11        -1.1501    1.8988    0.0015 C.2       1 <0>        -0.1763
     15 C12        -0.7156    3.1784    0.0030 C.2       1 <0>        -0.0228
     16 O2          0.6238    3.1787   -0.0040 O.3       1 <0>        -0.1504
     17 C13        -1.5934    4.4033    0.0057 C.3       1 <0>         0.2093
     18 N2         -1.8712    4.8019    1.3878 N.pl3     1 <0>        -0.3279
     19 C14        -2.9124    4.3862    2.1406 C.2       1 <0>         0.1244
     20 C15        -2.8080    4.9802    3.3525 C.2       1 <0>        -0.1448
     21 C16        -1.6689    5.7927    3.3368 C.2       1 <0>         0.1402
     22 N3         -1.1070    5.6864    2.1598 N.2       1 <0>        -0.1918
     23 N4         -1.1830    6.6279    4.4581 N.pl3     1 <0>         0.0511
     24 O3         -0.1737    7.2968    4.3265 O.2       1 <0>        -0.1203
     25 O4         -1.7926    6.6462    5.5124 O.3       1 <0>        -0.1073
     26 Cl1        -3.8981    4.7752    4.6880 Cl        1 <0>         0.0154
     27 C17        -3.9950    3.4304    1.7097 C.3       1 <0>        -0.1036
     28 H1          9.4449    1.2227   -0.4855 H         1 <0>         0.0759
     29 H2          9.3097    1.1778    1.2888 H         1 <0>         0.0742
     30 H3          8.9461   -0.2780    0.3314 H         1 <0>         0.0709
     31 H4          7.7375    3.0222    1.3913 H         1 <0>         0.1408
     32 H5          5.3857    3.7260    1.2258 H         1 <0>         0.1359
     33 H6          4.5049    0.2249   -1.0664 H         1 <0>         0.1521
     34 H7          3.2326    3.3551   -0.0854 H         1 <0>         0.4202
     35 H8          0.0018   -0.0036    0.0037 H         1 <0>         0.1710
     36 H9         -2.1791    1.5707    0.0022 H         1 <0>         0.1671
     37 H10        -1.0842    5.2164   -0.5116 H         1 <0>         0.1336
     38 H11        -2.5310    4.1795   -0.5033 H         1 <0>         0.1497
     39 H12        -3.6941    2.4099    1.9466 H         1 <0>         0.1007
     40 H13        -4.9197    3.6679    2.2355 H         1 <0>         0.1037
     41 H14        -4.1541    3.5221    0.6352 H         1 <0>         0.0891
@<TRIPOS>BOND
     1    1    2 1
     2    1   28 1
     3    1   29 1
     4    1   30 1
     5    2    7 ar
     6    2    3 ar
     7    3    4 ar
     8    3   31 1
     9    4    5 ar
    10    4   32 1
    11    5    6 ar
    12    5    9 1
    13    6    7 ar
    14    6   33 1
    15    7    8 1
    16    9   10 am
    17    9   34 1
    18   10   11 2
    19   10   12 1
    20   12   16 1
    21   12   13 2
    22   13   14 1
    23   13   35 1
    24   14   15 2
    25   14   36 1
    26   15   16 1
    27   15   17 1
    28   17   18 1
    29   17   37 1
    30   17   38 1
    31   18   22 1
    32   18   19 1
    33   19   20 2
    34   19   27 1
    35   20   21 1
    36   20   26 1
    37   21   22 2
    38   21   23 1
    39   23   24 2
    40   23   25 1
    41   27   39 1
    42   27   40 1
    43   27   41 1
@<TRIPOS>MOLECULE
ZINC02804707
   39    41     0     0     0
SMALL
USER_CHARGES
N-[1-[(2-chloro-4-fluoro-phenyl)methyl]pyrazol-3-yl]-4-nitro-benzenesulfonamide
@<TRIPOS>ATOM
      1 C1          4.2163    3.7205    3.8087 C.ar      1 <0>        -0.0807
      2 C2          4.2845    3.0398    2.6075 C.ar      1 <0>        -0.0145
      3 C3          3.5763    3.4979    1.5123 C.ar      1 <0>        -0.6383
      4 C4          2.8044    4.6399    1.6168 C.ar      1 <0>        -0.0040
      5 C5          2.7328    5.3182    2.8192 C.ar      1 <0>        -0.0874
      6 C6          3.4407    4.8598    3.9145 C.ar      1 <0>         0.0131
      7 N1          3.3677    5.5886    5.2007 N.pl3     1 <0>         0.0164
      8 O1          3.9911    5.1845    6.1659 O.2       1 <0>        -0.1442
      9 O2          2.6842    6.5925    5.2939 O.3       1 <0>        -0.1393
     10 S1          3.6631    2.6303   -0.0188 S.o2      1 <0>         2.6894
     11 O3          4.8866    1.9077   -0.0073 O.2       1 <0>        -0.9361
     12 O4          3.3423    3.5689   -1.0363 O.2       1 <0>        -0.9133
     13 N2          2.4485    1.5046   -0.0133 N.pl3     1 <0>        -1.0104
     14 C7          1.1112    1.9180    0.0017 C.2       1 <0>         0.3085
     15 C8         -0.0126    1.0758    0.0080 C.2       1 <0>        -0.2759
     16 C9         -1.1165    1.8572    0.0168 C.2       1 <0>         0.0853
     17 N3         -0.7122    3.1448    0.0258 N.pl3     1 <0>        -0.3540
     18 N4          0.6883    3.1602    0.0125 N.2       1 <0>        -0.3138
     19 C10        -1.5856    4.3209    0.0404 C.3       1 <0>         0.1756
     20 C11        -1.2202    5.2035    1.2060 C.ar      1 <0>        -0.1216
     21 C12        -1.9095    5.0928    2.3992 C.ar      1 <0>        -0.0531
     22 C13        -1.5716    5.8976    3.4705 C.ar      1 <0>        -0.1549
     23 C14        -0.5494    6.8236    3.3456 C.ar      1 <0>         0.1355
     24 C15         0.1370    6.9383    2.1491 C.ar      1 <0>        -0.1677
     25 C16        -0.1988    6.1280    1.0795 C.ar      1 <0>         0.0126
     26 Cl1         0.6618    6.2707   -0.4214 Cl        1 <0>        -0.0236
     27 F1         -0.2228    7.6147    4.3908 F         1 <0>        -0.1174
     28 H1          4.7694    3.3623    4.6644 H         1 <0>         0.1661
     29 H2          4.8908    2.1499    2.5247 H         1 <0>         0.1661
     30 H3          2.2546    5.0003    0.7599 H         1 <0>         0.1734
     31 H4          2.1265    6.2081    2.9019 H         1 <0>         0.1579
     32 H5          2.6638    0.5588   -0.0204 H         1 <0>         0.4401
     33 H6          0.0021   -0.0041    0.0020 H         1 <0>         0.1563
     34 H7         -2.1398    1.5120    0.0189 H         1 <0>         0.1840
     35 H8         -1.4622    4.8767   -0.8890 H         1 <0>         0.1057
     36 H9         -2.6233    4.0016    0.1378 H         1 <0>         0.1189
     37 H10        -2.7096    4.3738    2.4955 H         1 <0>         0.1458
     38 H11        -2.1079    5.8077    4.4036 H         1 <0>         0.1474
     39 H12         0.9341    7.6604    2.0506 H         1 <0>         0.1522
@<TRIPOS>BOND
     1    1    6 ar
     2    1    2 ar
     3    1   28 1
     4    2    3 ar
     5    2   29 1
     6    3    4 ar
     7    3   10 1
     8    4    5 ar
     9    4   30 1
    10    5    6 ar
    11    5   31 1
    12    6    7 1
    13    7    8 2
    14    7    9 1
    15   10   11 2
    16   10   12 2
    17   10   13 1
    18   13   14 1
    19   13   32 1
    20   14   18 2
    21   14   15 1
    22   15   16 2
    23   15   33 1
    24   16   17 1
    25   16   34 1
    26   17   18 1
    27   17   19 1
    28   19   20 1
    29   19   35 1
    30   19   36 1
    31   20   25 ar
    32   20   21 ar
    33   21   22 ar
    34   21   37 1
    35   22   23 ar
    36   22   38 1
    37   23   24 ar
    38   23   27 1
    39   24   25 ar
    40   24   39 1
    41   25   26 1
@<TRIPOS>MOLECULE
ZINC08510656
   49    51     0     0     0
SMALL
USER_CHARGES
3-[2-(2,6-dimethylphenoxy)ethyl]-5-methyl-5-(4-nitrophenyl)-imidazolidine-2,4-dione
@<TRIPOS>ATOM
      1 C1         -1.5600    1.8322   -6.8415 C.3       1 <0>        -0.1143
      2 C2         -0.6750    0.6456   -6.5594 C.ar      1 <0>        -0.0953
      3 C3         -0.4473   -0.2966   -7.5438 C.ar      1 <0>        -0.1138
      4 C4          0.3603   -1.3883   -7.2839 C.ar      1 <0>        -0.1133
      5 C5          0.9459   -1.5376   -6.0403 C.ar      1 <0>        -0.1142
      6 C6          0.7256   -0.5955   -5.0542 C.ar      1 <0>        -0.0979
      7 C7         -0.0839    0.5011   -5.3126 C.ar      1 <0>         0.0909
      8 O1         -0.3022    1.4293   -4.3443 O.3       1 <0>        -0.3221
      9 C8          0.6093    2.5280   -4.2816 C.3       1 <0>         0.0444
     10 C9          0.2059    3.4608   -3.1379 C.3       1 <0>         0.1227
     11 N1          0.3554    2.7598   -1.8602 N.am      1 <0>        -0.5710
     12 C10        -0.6189    2.0351   -1.2757 C.2       1 <0>         0.5389
     13 O2         -1.7419    1.8472   -1.6922 O.2       1 <0>        -0.4366
     14 C11        -0.0184    1.5028    0.0103 C.3       1 <0>         0.1592
     15 N2          1.3534    2.0398    0.0001 N.am      1 <0>        -0.7193
     16 C12         1.4764    2.7594   -1.1299 C.2       1 <0>         0.7049
     17 O3          2.4924    3.3438   -1.4513 O.2       1 <0>        -0.5316
     18 C13        -0.7908    2.0224    1.2245 C.3       1 <0>        -0.1463
     19 C14         0.0021   -0.0041    0.0020 C.ar      1 <0>        -0.0456
     20 C15        -1.0185   -0.7058   -0.6119 C.ar      1 <0>        -0.1006
     21 C16        -0.9975   -2.0879   -0.6233 C.ar      1 <0>        -0.0472
     22 C17         0.0391   -2.7685   -0.0125 C.ar      1 <0>        -0.0349
     23 C18         1.0573   -2.0668    0.6055 C.ar      1 <0>        -0.0517
     24 C19         1.0385   -0.6846    0.6132 C.ar      1 <0>        -0.0968
     25 N3          0.0592   -4.2485   -0.0207 N.pl3     1 <0>         0.0246
     26 O4          0.9729   -4.8481    0.5172 O.2       1 <0>        -0.1542
     27 O5         -0.8378   -4.8667   -0.5652 O.3       1 <0>        -0.1520
     28 C20         1.3638   -0.7591   -3.6989 C.3       1 <0>        -0.1055
     29 H1         -0.9565    2.6502   -7.2351 H         1 <0>         0.0684
     30 H2         -2.3176    1.5544   -7.5743 H         1 <0>         0.0690
     31 H3         -2.0460    2.1504   -5.9192 H         1 <0>         0.0745
     32 H4         -0.9041   -0.1826   -8.5157 H         1 <0>         0.1274
     33 H5          0.5338   -2.1260   -8.0535 H         1 <0>         0.1267
     34 H6          1.5758   -2.3916   -5.8395 H         1 <0>         0.1253
     35 H7          0.5833    3.0758   -5.2236 H         1 <0>         0.0767
     36 H8          1.6180    2.1538   -4.1066 H         1 <0>         0.0623
     37 H9         -0.8330    3.7647   -3.2661 H         1 <0>         0.1098
     38 H10         0.8461    4.3429   -3.1454 H         1 <0>         0.1196
     39 H11         2.0351    1.9011    0.6760 H         1 <0>         0.4417
     40 H12        -0.3116    1.6701    2.1379 H         1 <0>         0.0859
     41 H13        -0.7948    3.1123    1.2134 H         1 <0>         0.0798
     42 H14        -1.8163    1.6549    1.1872 H         1 <0>         0.0902
     43 H15        -1.8306   -0.1741   -1.0855 H         1 <0>         0.1641
     44 H16        -1.7928   -2.6361   -1.1064 H         1 <0>         0.1593
     45 H17         1.8672   -2.5985    1.0827 H         1 <0>         0.1593
     46 H18         1.8338   -0.1364    1.0963 H         1 <0>         0.1470
     47 H19         0.6978   -1.3279   -3.0500 H         1 <0>         0.0654
     48 H20         2.3096   -1.2905   -3.8044 H         1 <0>         0.0662
     49 H21         1.5455    0.2228   -3.2620 H         1 <0>         0.0600
@<TRIPOS>BOND
     1    1    2 1
     2    1   29 1
     3    1   30 1
     4    1   31 1
     5    2    7 ar
     6    2    3 ar
     7    3    4 ar
     8    3   32 1
     9    4    5 ar
    10    4   33 1
    11    5    6 ar
    12    5   34 1
    13    6    7 ar
    14    6   28 1
    15    7    8 1
    16    8    9 1
    17    9   10 1
    18    9   35 1
    19    9   36 1
    20   10   11 1
    21   10   37 1
    22   10   38 1
    23   11   16 am
    24   11   12 am
    25   12   13 2
    26   12   14 1
    27   14   15 1
    28   14   18 1
    29   14   19 1
    30   15   16 am
    31   15   39 1
    32   16   17 2
    33   18   40 1
    34   18   41 1
    35   18   42 1
    36   19   24 ar
    37   19   20 ar
    38   20   21 ar
    39   20   43 1
    40   21   22 ar
    41   21   44 1
    42   22   23 ar
    43   22   25 1
    44   23   24 ar
    45   23   45 1
    46   24   46 1
    47   25   26 2
    48   25   27 1
    49   28   47 1
    50   28   48 1
    51   28   49 1
@<TRIPOS>MOLECULE
ZINC39985459
   48    49     0     0     0
SMALL
USER_CHARGES

@<TRIPOS>ATOM
      1 C1         -0.1895    1.3992    0.1596 C.3       1 <0>        -0.1784
      2 C2         -0.1293   -0.1292    0.1268 C.3       1 <0>         0.1100
      3 N1          0.5477   -0.5652   -1.0971 N.pl3     1 <0>        -0.9792
      4 C3          2.0099   -0.6468   -1.1360 C.3       1 <0>         0.1086
      5 C4          2.4534   -1.9790   -0.5885 C.2       1 <0>         0.4985
      6 O1          1.6291   -2.7812   -0.2037 O.2       1 <0>        -0.4976
      7 N2          3.7659   -2.2789   -0.5265 N.am      1 <0>        -0.6662
      8 C5          4.1845   -3.4634    0.0896 C.ar      1 <0>         0.1555
      9 C6          3.3884   -4.0640    1.0564 C.ar      1 <0>        -0.0831
     10 C7          3.8044   -5.2329    1.6626 C.ar      1 <0>        -0.0961
     11 C8          5.0123   -5.8056    1.3080 C.ar      1 <0>        -0.0739
     12 C9          5.8073   -5.2100    0.3463 C.ar      1 <0>        -0.0241
     13 C10         5.3940   -4.0439   -0.2682 C.ar      1 <0>        -0.0577
     14 C11         6.2577   -3.3992   -1.3215 C.3       1 <0>        -0.1308
     15 N3          7.0998   -5.8257   -0.0295 N.pl3     1 <0>         0.0310
     16 O2          7.2114   -7.0293   -0.0544 O.2       1 <0>        -0.1520
     17 O3          8.0438   -5.1251   -0.3116 O.3       1 <0>        -0.1474
     18 S1         -0.3399   -0.9656   -2.4366 S.o2      1 <0>         2.6907
     19 O4          0.4678   -1.8404   -3.2123 O.2       1 <0>        -0.9501
     20 O5         -1.6320   -1.3323   -1.9728 O.2       1 <0>        -0.9449
     21 C12        -0.5440    0.5052   -3.3851 C.ar      1 <0>        -0.6853
     22 C13        -1.6303    1.3292   -3.1576 C.ar      1 <0>        -0.0146
     23 C14        -1.7904    2.4831   -3.9017 C.ar      1 <0>        -0.1406
     24 C15        -0.8639    2.8132   -4.8731 C.ar      1 <0>        -0.0256
     25 C16         0.2229    1.9897   -5.1001 C.ar      1 <0>        -0.1409
     26 C17         0.3853    0.8380   -4.3530 C.ar      1 <0>        -0.0179
     27 C18        -1.0390    4.0707   -5.6851 C.3       1 <0>        -0.1273
     28 H1          0.8227    1.8032    0.1407 H         1 <0>         0.0615
     29 H2         -0.7409    1.7598   -0.7088 H         1 <0>         0.0579
     30 H3         -0.6932    1.7235    1.0702 H         1 <0>         0.0745
     31 H4          0.4221   -0.4899    0.9951 H         1 <0>         0.0870
     32 H5         -1.1415   -0.5332    0.1457 H         1 <0>         0.0997
     33 H6          2.3522   -0.5451   -2.1658 H         1 <0>         0.1181
     34 H7          2.4347    0.1543   -0.5311 H         1 <0>         0.1236
     35 H8          4.4203   -1.6736   -0.9089 H         1 <0>         0.4177
     36 H9          2.4452   -3.6171    1.3340 H         1 <0>         0.1636
     37 H10         3.1860   -5.7002    2.4147 H         1 <0>         0.1522
     38 H11         5.3355   -6.7198    1.7835 H         1 <0>         0.1502
     39 H12         6.8840   -2.6355   -0.8603 H         1 <0>         0.0947
     40 H13         6.8901   -4.1559   -1.7859 H         1 <0>         0.0845
     41 H14         5.6239   -2.9399   -2.0800 H         1 <0>         0.0765
     42 H15        -2.3541    1.0714   -2.3986 H         1 <0>         0.1404
     43 H16        -2.6395    3.1266   -3.7244 H         1 <0>         0.1345
     44 H17         0.9465    2.2474   -5.8592 H         1 <0>         0.1343
     45 H18         1.2363    0.1965   -4.5277 H         1 <0>         0.1387
     46 H19        -0.5381    4.8992   -5.1843 H         1 <0>         0.0809
     47 H20        -0.6044    3.9278   -6.6744 H         1 <0>         0.0742
     48 H21        -2.1012    4.2945   -5.7838 H         1 <0>         0.0743
@<TRIPOS>BOND
     1    1    2 1
     2    1   28 1
     3    1   29 1
     4    1   30 1
     5    2    3 1
     6    2   31 1
     7    2   32 1
     8    3    4 1
     9    3   18 1
    10    4    5 1
    11    4   33 1
    12    4   34 1
    13    5    6 2
    14    5    7 am
    15    7    8 1
    16    7   35 1
    17    8   13 ar
    18    8    9 ar
    19    9   10 ar
    20    9   36 1
    21   10   11 ar
    22   10   37 1
    23   11   12 ar
    24   11   38 1
    25   12   13 ar
    26   12   15 1
    27   13   14 1
    28   14   39 1
    29   14   40 1
    30   14   41 1
    31   15   16 2
    32   15   17 1
    33   18   19 2
    34   18   20 2
    35   18   21 1
    36   21   26 ar
    37   21   22 ar
    38   22   23 ar
    39   22   42 1
    40   23   24 ar
    41   23   43 1
    42   24   25 ar
    43   24   27 1
    44   25   26 ar
    45   25   44 1
    46   26   45 1
    47   27   46 1
    48   27   47 1
    49   27   48 1
@<TRIPOS>MOLECULE
ZINC59446867
   44    47     0     0     0
SMALL
USER_CHARGES

@<TRIPOS>ATOM
      1 C1         -0.0167    1.3794    0.0096 C.ar      1 <0>        -0.0775
      2 C2          1.1683    2.0937    0.0021 C.ar      1 <0>        -0.1287
      3 C3          2.3774    1.4297   -0.0129 C.ar      1 <0>        -0.0498
      4 C4          2.4036    0.0339   -0.0206 C.ar      1 <0>        -0.1299
      5 C5          1.2042   -0.6806   -0.0130 C.ar      1 <0>        -0.0631
      6 C6          0.0021   -0.0041    0.0020 C.ar      1 <0>        -0.1299
      7 C7          3.6950   -0.6841   -0.0372 C.2       1 <0>         0.4810
      8 O1          4.7375   -0.0595   -0.0442 O.2       1 <0>        -0.4770
      9 O2          3.7167   -2.0276   -0.0446 O.3       1 <0>        -0.0996
     10 N1          5.0194   -2.5825   -0.0605 N.am      1 <0>        -0.4666
     11 C8          5.6696   -2.8514   -1.3429 C.3       1 <0>         0.4362
     12 H1          5.2982   -2.1500   -2.0899 H         1 <0>         0.1281
     13 N2          7.1246   -2.7023   -1.2171 N.pl3     1 <0>        -0.7368
     14 C9          7.7557   -3.2564   -0.1087 C.ar      1 <0>         0.2283
     15 C10         9.0633   -3.7074   -0.1592 C.ar      1 <0>        -0.1735
     16 C11         9.6422   -4.2532    0.9707 C.ar      1 <0>        -0.0459
     17 C12         8.9242   -4.3531    2.1520 C.ar      1 <0>        -0.1628
     18 C13         7.6202   -3.9071    2.2192 C.ar      1 <0>        -0.0173
     19 C14         7.0255   -3.3530    1.0889 C.ar      1 <0>        -0.1895
     20 C15         5.6403   -2.8482    1.1075 C.2       1 <0>         0.5823
     21 O3          5.0622   -2.6773    2.1645 O.2       1 <0>        -0.5000
     22 C16         5.3515   -4.2587   -1.7781 C.ar      1 <0>        -0.1287
     23 C17         4.1521   -4.8410   -1.4122 C.ar      1 <0>        -0.0400
     24 C18         3.8604   -6.1317   -1.8114 C.ar      1 <0>        -0.1143
     25 C19         4.7677   -6.8403   -2.5770 C.ar      1 <0>        -0.0438
     26 C20         5.9663   -6.2578   -2.9436 C.ar      1 <0>        -0.0505
     27 C21         6.2563   -4.9652   -2.5478 C.ar      1 <0>        -0.0239
     28 N3          6.9379   -7.0166   -3.7628 N.pl3     1 <0>         0.0336
     29 O4          6.6831   -8.1459   -4.1113 O.2       1 <0>        -0.1542
     30 O5          7.9864   -6.5071   -4.0834 O.3       1 <0>        -0.1544
     31 H2         -0.9605    1.9041    0.0260 H         1 <0>         0.1337
     32 H3          1.1466    3.1734    0.0078 H         1 <0>         0.1369
     33 H4          3.3017    1.9884   -0.0191 H         1 <0>         0.1387
     34 H5          1.2175   -1.7605   -0.0192 H         1 <0>         0.1372
     35 H6         -0.9265   -0.5555    0.0079 H         1 <0>         0.1358
     36 H7          7.6345   -2.2280   -1.8923 H         1 <0>         0.4238
     37 H8          9.6282   -3.6328   -1.0766 H         1 <0>         0.1375
     38 H9         10.6625   -4.6053    0.9327 H         1 <0>         0.1351
     39 H10         9.3889   -4.7837    3.0266 H         1 <0>         0.1345
     40 H11         7.0647   -3.9876    3.1419 H         1 <0>         0.1393
     41 H12         3.4434   -4.2875   -0.8141 H         1 <0>         0.1485
     42 H13         2.9238   -6.5868   -1.5250 H         1 <0>         0.1534
     43 H14         4.5400   -7.8490   -2.8883 H         1 <0>         0.1574
     44 H15         7.1913   -4.5087   -2.8374 H         1 <0>         0.1564
@<TRIPOS>BOND
     1    1    6 ar
     2    1    2 ar
     3    1   31 1
     4    2    3 ar
     5    2   32 1
     6    3    4 ar
     7    3   33 1
     8    4    5 ar
     9    4    7 1
    10    5    6 ar
    11    5   34 1
    12    6   35 1
    13    7    8 2
    14    7    9 1
    15    9   10 1
    16   10   20 am
    17   10   11 1
    18   11   12 1
    19   11   13 1
    20   11   22 1
    21   13   14 1
    22   13   36 1
    23   14   19 ar
    24   14   15 ar
    25   15   16 ar
    26   15   37 1
    27   16   17 ar
    28   16   38 1
    29   17   18 ar
    30   17   39 1
    31   18   19 ar
    32   18   40 1
    33   19   20 1
    34   20   21 2
    35   22   27 ar
    36   22   23 ar
    37   23   24 ar
    38   23   41 1
    39   24   25 ar
    40   24   42 1
    41   25   26 ar
    42   25   43 1
    43   26   27 ar
    44   26   28 1
    45   27   44 1
    46   28   29 2
    47   28   30 1
@<TRIPOS>MOLECULE
ZINC02068946
   62    64     0     0     0
SMALL
USER_CHARGES
2-(1,3-dioxoisoindolin-2-yl)-3-(4-nitrophenyl)-N-(1,1,3,3-tetramethylbutyl)propanamide
@<TRIPOS>ATOM
      1 C1         -6.6453    0.7710    1.5454 C.3       1 <0>        -0.1707
      2 C2         -7.5967    1.2777    2.6313 C.3       1 <0>        -0.0670
      3 C3         -8.9881    0.6813    2.4091 C.3       1 <0>        -0.1430
      4 C4         -7.6795    2.8040    2.5651 C.3       1 <0>        -0.1563
      5 C5         -7.0739    0.8544    4.0055 C.3       1 <0>        -0.1142
      6 C6         -5.6082    1.2710    4.1440 C.3       1 <0>         0.1786
      7 C7         -5.1410    1.0230    5.5797 C.3       1 <0>        -0.1658
      8 C8         -5.4670    2.7577    3.8113 C.3       1 <0>        -0.1748
      9 N1         -4.7874    0.4839    3.2205 N.am      1 <0>        -0.7192
     10 C9         -3.4477    0.6316    3.2163 C.2       1 <0>         0.5027
     11 O1         -2.9218    1.4162    3.9770 O.2       1 <0>        -0.4987
     12 C10        -2.6034   -0.1781    2.2663 C.3       1 <0>         0.1305
     13 H1         -2.9947   -1.1938    2.2078 H         1 <0>         0.1297
     14 C11        -2.6402    0.4634    0.8778 C.3       1 <0>        -0.0997
     15 C12        -1.8978   -0.4113   -0.0995 C.ar      1 <0>        -0.0353
     16 C13        -0.5445   -0.2212   -0.3074 C.ar      1 <0>        -0.1116
     17 C14         0.1373   -1.0261   -1.2009 C.ar      1 <0>        -0.0477
     18 C15        -0.5360   -2.0156   -1.8926 C.ar      1 <0>        -0.0424
     19 C16        -1.8904   -2.2022   -1.6886 C.ar      1 <0>        -0.0477
     20 C17        -2.5714   -1.3999   -0.7922 C.ar      1 <0>        -0.1094
     21 N2          0.1932   -2.8750   -2.8520 N.pl3     1 <0>         0.0265
     22 O2         -0.4001   -3.7466   -3.4618 O.2       1 <0>        -0.1553
     23 O3          1.3866   -2.7106   -3.0318 O.3       1 <0>        -0.1565
     24 N3         -1.2213   -0.2144    2.7510 N.am      1 <0>        -0.5639
     25 C18        -0.5557   -1.3392    3.0694 C.2       1 <0>         0.5769
     26 O4         -0.9983   -2.4681    3.0018 O.2       1 <0>        -0.4618
     27 C19         0.8068   -0.9716    3.5094 C.ar      1 <0>        -0.1431
     28 C20         1.9107   -1.6891    3.9415 C.ar      1 <0>        -0.0426
     29 C21         3.0726   -1.0185    4.2900 C.ar      1 <0>        -0.0948
     30 C22         3.1374    0.3599    4.2085 C.ar      1 <0>        -0.0916
     31 C23         2.0411    1.0907    3.7779 C.ar      1 <0>        -0.0448
     32 C24         0.8727    0.4339    3.4266 C.ar      1 <0>        -0.1370
     33 C25        -0.4519    0.8729    2.9392 C.2       1 <0>         0.5771
     34 O5         -0.7877    2.0225    2.7375 O.2       1 <0>        -0.4325
     35 H2         -6.5477   -0.3117    1.6242 H         1 <0>         0.0543
     36 H3         -7.0434    1.0295    0.5642 H         1 <0>         0.0598
     37 H4         -5.6672    1.2344    1.6743 H         1 <0>         0.0783
     38 H5         -9.6658    1.0423    3.1827 H         1 <0>         0.0564
     39 H6         -9.3605    0.9829    1.4301 H         1 <0>         0.0570
     40 H7         -8.9291   -0.4061    2.4562 H         1 <0>         0.0540
     41 H8         -6.7990    3.1939    2.0546 H         1 <0>         0.0673
     42 H9         -8.5758    3.0959    2.0178 H         1 <0>         0.0503
     43 H10        -7.7228    3.2097    3.5759 H         1 <0>         0.0647
     44 H11        -7.1552   -0.2278    4.1076 H         1 <0>         0.0697
     45 H12        -7.6642    1.3381    4.7836 H         1 <0>         0.0830
     46 H13        -4.1275    1.4047    5.7030 H         1 <0>         0.0803
     47 H14        -5.8088    1.5349    6.2726 H         1 <0>         0.0644
     48 H15        -5.1540   -0.0471    5.7862 H         1 <0>         0.0531
     49 H16        -5.5306    2.8962    2.7320 H         1 <0>         0.0736
     50 H17        -6.2671    3.3163    4.2971 H         1 <0>         0.0709
     51 H18        -4.5027    3.1198    4.1679 H         1 <0>         0.0666
     52 H19        -5.2080   -0.1436    2.6121 H         1 <0>         0.4049
     53 H20        -3.6756    0.5714    0.5548 H         1 <0>         0.1090
     54 H21        -2.1679    1.4449    0.9183 H         1 <0>         0.1092
     55 H22        -0.0192    0.5541    0.2306 H         1 <0>         0.1397
     56 H23         1.1954   -0.8801   -1.3605 H         1 <0>         0.1557
     57 H24        -2.4165   -2.9750   -2.2292 H         1 <0>         0.1575
     58 H25        -3.6296   -1.5457   -0.6328 H         1 <0>         0.1507
     59 H26         1.8657   -2.7661    4.0072 H         1 <0>         0.1424
     60 H27         3.9334   -1.5768    4.6273 H         1 <0>         0.1445
     61 H28         4.0485    0.8710    4.4824 H         1 <0>         0.1445
     62 H29         2.0973    2.1675    3.7168 H         1 <0>         0.1436
@<TRIPOS>BOND
     1    1    2 1
     2    1   35 1
     3    1   36 1
     4    1   37 1
     5    2    3 1
     6    2    4 1
     7    2    5 1
     8    3   38 1
     9    3   39 1
    10    3   40 1
    11    4   41 1
    12    4   42 1
    13    4   43 1
    14    5    6 1
    15    5   44 1
    16    5   45 1
    17    6    7 1
    18    6    8 1
    19    6    9 1
    20    7   46 1
    21    7   47 1
    22    7   48 1
    23    8   49 1
    24    8   50 1
    25    8   51 1
    26    9   10 am
    27    9   52 1
    28   10   11 2
    29   10   12 1
    30   12   13 1
    31   12   14 1
    32   12   24 1
    33   14   15 1
    34   14   53 1
    35   14   54 1
    36   15   20 ar
    37   15   16 ar
    38   16   17 ar
    39   16   55 1
    40   17   18 ar
    41   17   56 1
    42   18   19 ar
    43   18   21 1
    44   19   20 ar
    45   19   57 1
    46   20   58 1
    47   21   22 2
    48   21   23 1
    49   24   33 am
    50   24   25 am
    51   25   26 2
    52   25   27 1
    53   27   32 ar
    54   27   28 ar
    55   28   29 ar
    56   28   59 1
    57   29   30 ar
    58   29   60 1
    59   30   31 ar
    60   30   61 1
    61   31   32 ar
    62   31   62 1
    63   32   33 1
    64   33   34 2
@<TRIPOS>MOLECULE
ZINC14359645
   54    58     0     0     0
SMALL
USER_CHARGES
6-[(E)-2-[3-nitro-4-(p-tolylsulfanyl)phenyl]vinyl]-1-phenyl-5H-pyrazolo[4,5-e]pyrimidin-4-one
@<TRIPOS>ATOM
      1 C1         -6.6387    3.6184   -5.8042 C.3       1 <0>        -0.1168
      2 C2         -6.2779    3.7072   -4.3437 C.ar      1 <0>        -0.0840
      3 C3         -7.0722    4.4428   -3.4804 C.ar      1 <0>        -0.0977
      4 C4         -6.7466    4.5274   -2.1429 C.ar      1 <0>        -0.0871
      5 C5         -5.6151    3.8699   -1.6603 C.ar      1 <0>        -0.1007
      6 C6         -4.8157    3.1347   -2.5354 C.ar      1 <0>        -0.1295
      7 C7         -5.1535    3.0524   -3.8699 C.ar      1 <0>        -0.0987
      8 S1         -5.1933    3.9737    0.0473 S.3       1 <0>         0.0667
      9 C8         -3.6622    3.1016    0.0377 C.ar      1 <0>        -0.0834
     10 C9         -2.4474    3.8143    0.0753 C.ar      1 <0>        -0.0607
     11 C10        -1.2672    3.1468    0.0686 C.ar      1 <0>        -0.0585
     12 C11        -1.2567    1.7315    0.0236 C.ar      1 <0>        -0.0484
     13 C12        -2.4795    1.0192   -0.0195 C.ar      1 <0>        -0.0350
     14 C13        -3.6559    1.6938   -0.0070 C.ar      1 <0>         0.0361
     15 N1         -4.9349    0.9499   -0.0459 N.pl3     1 <0>        -0.0338
     16 O1         -4.9300   -0.3664   -0.0878 O.2       1 <0>        -0.1769
     17 O2         -6.0778    1.6043   -0.0387 O.3       1 <0>        -0.1120
     18 C14        -0.0351    1.0357    0.0160 C.2       1 <0>        -0.0016
     19 C15         1.1638    1.7368    0.0467 C.2       1 <0>        -0.1475
     20 C16         2.3843    1.0419    0.0332 C.2       1 <0>         0.4574
     21 N2          3.5498    1.7640    0.0589 N.am      1 <0>        -0.6431
     22 H1          3.5189    2.7332    0.0853 H         1 <0>         0.4254
     23 C17         4.7446    1.1246    0.0521 C.2       1 <0>         0.5834
     24 O3          5.7923    1.7420    0.0791 O.2       1 <0>        -0.5070
     25 C18         4.7242   -0.3433    0.0057 C.2       1 <0>        -0.3057
     26 C19         5.6725   -1.3575   -0.0194 C.2       1 <0>         0.0992
     27 N3          5.0310   -2.5098   -0.0604 N.2       1 <0>        -0.2766
     28 N4          3.7549   -2.3465   -0.0644 N.pl3     1 <0>        -0.2222
     29 C20         3.4620   -1.0041   -0.0242 C.2       1 <0>         0.2788
     30 N5          2.3583   -0.2857   -0.0092 N.2       1 <0>        -0.5130
     31 C21         2.8128   -3.3743   -0.1032 C.ar      1 <0>         0.1235
     32 C22         1.6124   -3.2465    0.5881 C.ar      1 <0>        -0.1035
     33 C23         0.6807   -4.2639    0.5432 C.ar      1 <0>        -0.1025
     34 C24         0.9440   -5.4143   -0.1791 C.ar      1 <0>        -0.1078
     35 C25         2.1388   -5.5473   -0.8641 C.ar      1 <0>        -0.1043
     36 C26         3.0735   -4.5324   -0.8286 C.ar      1 <0>        -0.0984
     37 H2         -6.1591    4.4328   -6.3471 H         1 <0>         0.0728
     38 H3         -6.2979    2.6639   -6.2053 H         1 <0>         0.0673
     39 H4         -7.7203    3.6942   -5.9165 H         1 <0>         0.0698
     40 H5         -7.9481    4.9515   -3.8551 H         1 <0>         0.1315
     41 H6         -7.3668    5.1014   -1.4704 H         1 <0>         0.1318
     42 H7         -3.9358    2.6276   -2.1678 H         1 <0>         0.1094
     43 H8         -4.5376    2.4798   -4.5475 H         1 <0>         0.1244
     44 H9         -2.4563    4.8938    0.1092 H         1 <0>         0.1647
     45 H10        -0.3365    3.6939    0.0970 H         1 <0>         0.1584
     46 H11        -2.4754   -0.0601   -0.0580 H         1 <0>         0.1688
     47 H12        -0.0287   -0.0437   -0.0183 H         1 <0>         0.1561
     48 H13         1.1574    2.8163    0.0810 H         1 <0>         0.1516
     49 H14         6.7445   -1.2265   -0.0075 H         1 <0>         0.2006
     50 H15         1.4081   -2.3508    1.1560 H         1 <0>         0.1357
     51 H16        -0.2533   -4.1637    1.0763 H         1 <0>         0.1369
     52 H17         0.2148   -6.2104   -0.2085 H         1 <0>         0.1333
     53 H18         2.3404   -6.4467   -1.4270 H         1 <0>         0.1364
     54 H19         4.0059   -4.6370   -1.3636 H         1 <0>         0.1366
@<TRIPOS>BOND
     1    1    2 1
     2    1   37 1
     3    1   38 1
     4    1   39 1
     5    2    7 ar
     6    2    3 ar
     7    3    4 ar
     8    3   40 1
     9    4    5 ar
    10    4   41 1
    11    5    6 ar
    12    5    8 1
    13    6    7 ar
    14    6   42 1
    15    7   43 1
    16    8    9 1
    17    9   14 ar
    18    9   10 ar
    19   10   11 ar
    20   10   44 1
    21   11   12 ar
    22   11   45 1
    23   12   13 ar
    24   12   18 1
    25   13   14 ar
    26   13   46 1
    27   14   15 1
    28   15   16 2
    29   15   17 1
    30   18   19 2
    31   18   47 1
    32   19   20 1
    33   19   48 1
    34   20   30 2
    35   20   21 1
    36   21   22 1
    37   21   23 am
    38   23   24 2
    39   23   25 1
    40   25   29 2
    41   25   26 1
    42   26   27 2
    43   26   49 1
    44   27   28 1
    45   28   29 1
    46   28   31 1
    47   29   30 1
    48   31   36 ar
    49   31   32 ar
    50   32   33 ar
    51   32   50 1
    52   33   34 ar
    53   33   51 1
    54   34   35 ar
    55   34   52 1
    56   35   36 ar
    57   35   53 1
    58   36   54 1
@<TRIPOS>MOLECULE
ZINC23599672
   54    57     0     0     0
SMALL
USER_CHARGES
(2S)-2-[[4-benzyl-5-(4-fluorophenyl)-1,2,4-triazol-3-yl]sulfanyl]-N-(4-nitrophenyl)propanamide
@<TRIPOS>ATOM
      1 C1         -3.1108   -2.6405    4.3163 C.3       1 <0>        -0.1520
      2 C2         -1.7952   -2.4271    3.5651 C.3       1 <0>        -0.1129
      3 H1         -1.1778   -1.8162    4.2401 H         1 <0>         0.1314
      4 C3         -1.0499   -3.7339    3.4760 C.2       1 <0>         0.5373
      5 O1         -1.0918   -4.3875    2.4551 O.2       1 <0>        -0.4996
      6 N1         -0.3370   -4.1764    4.5307 N.am      1 <0>        -0.6802
      7 C4          0.2748   -5.4339    4.4835 C.ar      1 <0>         0.2058
      8 C5          0.3622   -6.2087    5.6327 C.ar      1 <0>        -0.1442
      9 C6          0.9625   -7.4515    5.5818 C.ar      1 <0>        -0.0320
     10 C7          1.4856   -7.9201    4.3905 C.ar      1 <0>        -0.0625
     11 C8          1.4048   -7.1488    3.2457 C.ar      1 <0>        -0.0317
     12 C9          0.8011   -5.9073    3.2888 C.ar      1 <0>        -0.1257
     13 N2          2.1328   -9.2504    4.3407 N.pl3     1 <0>         0.0297
     14 O2          2.5936   -9.6645    3.2920 O.2       1 <0>        -0.1600
     15 O3          2.2047   -9.9308    5.3483 O.3       1 <0>        -0.1605
     16 S1         -2.1448   -1.8170    1.8973 S.3       1 <0>         0.1004
     17 C10        -2.8611   -0.2550    2.2868 C.2       1 <0>         0.1477
     18 N3         -3.0441    0.2404    3.4902 N.2       1 <0>        -0.2852
     19 N4         -3.5968    1.3979    3.4117 N.2       1 <0>        -0.2626
     20 C11        -3.7956    1.7152    2.1535 C.2       1 <0>         0.2328
     21 N5         -3.3274    0.6678    1.3942 N.pl3     1 <0>        -0.4485
     22 C12        -3.3334    0.5617   -0.0670 C.3       1 <0>         0.1368
     23 C13        -4.7256    0.2330   -0.5410 C.ar      1 <0>        -0.1254
     24 C14        -5.6209    1.2502   -0.8144 C.ar      1 <0>        -0.1014
     25 C15        -6.8961    0.9488   -1.2546 C.ar      1 <0>        -0.1194
     26 C16        -7.2778   -0.3699   -1.4165 C.ar      1 <0>        -0.1022
     27 C17        -6.3842   -1.3873   -1.1380 C.ar      1 <0>        -0.1192
     28 C18        -5.1090   -1.0859   -0.6978 C.ar      1 <0>        -0.0925
     29 C19        -4.4076    2.9623    1.6480 C.ar      1 <0>        -0.0263
     30 C20        -3.9935    3.5017    0.4290 C.ar      1 <0>        -0.0821
     31 C21        -4.5709    4.6630   -0.0400 C.ar      1 <0>        -0.1512
     32 C22        -5.5537    5.2996    0.7013 C.ar      1 <0>         0.1184
     33 C23        -5.9649    4.7713    1.9147 C.ar      1 <0>        -0.1478
     34 C24        -5.3976    3.6078    2.3908 C.ar      1 <0>        -0.0425
     35 F1         -6.1127    6.4395    0.2396 F         1 <0>        -0.1317
     36 H2         -3.6548   -1.6866    4.3813 H         1 <0>         0.0967
     37 H3         -2.8983   -3.0113    5.3299 H         1 <0>         0.0746
     38 H4         -3.7252   -3.3770    3.7778 H         1 <0>         0.0714
     39 H5         -0.2361   -3.5490    5.4286 H         1 <0>         0.4486
     40 H6         -0.0421   -5.8414    6.5644 H         1 <0>         0.1525
     41 H7          1.0269   -8.0565    6.4742 H         1 <0>         0.1591
     42 H8          1.8146   -7.5174    2.3169 H         1 <0>         0.1580
     43 H9          0.7380   -5.3056    2.3942 H         1 <0>         0.1614
     44 H10        -3.0131    1.5184   -0.5054 H         1 <0>         0.1123
     45 H11        -2.6420   -0.2347   -0.3797 H         1 <0>         0.1131
     46 H12        -5.3225    2.2805   -0.6883 H         1 <0>         0.1289
     47 H13        -7.5941    1.7436   -1.4725 H         1 <0>         0.1264
     48 H14        -8.2740   -0.6054   -1.7608 H         1 <0>         0.1266
     49 H15        -6.6823   -2.4175   -1.2648 H         1 <0>         0.1280
     50 H16        -4.4108   -1.8807   -0.4806 H         1 <0>         0.1264
     51 H17        -3.2248    3.0086   -0.1475 H         1 <0>         0.1362
     52 H18        -4.2539    5.0792   -0.9848 H         1 <0>         0.1459
     53 H19        -6.7307    5.2717    2.4887 H         1 <0>         0.1467
     54 H20        -5.7185    3.1971    3.3367 H         1 <0>         0.1457
@<TRIPOS>BOND
     1    1    2 1
     2    1   36 1
     3    1   37 1
     4    1   38 1
     5    2    3 1
     6    2    4 1
     7    2   16 1
     8    4    5 2
     9    4    6 am
    10    6    7 1
    11    6   39 1
    12    7   12 ar
    13    7    8 ar
    14    8    9 ar
    15    8   40 1
    16    9   10 ar
    17    9   41 1
    18   10   11 ar
    19   10   13 1
    20   11   12 ar
    21   11   42 1
    22   12   43 1
    23   13   14 2
    24   13   15 1
    25   16   17 1
    26   17   21 1
    27   17   18 2
    28   18   19 1
    29   19   20 2
    30   20   21 1
    31   20   29 1
    32   21   22 1
    33   22   23 1
    34   22   44 1
    35   22   45 1
    36   23   28 ar
    37   23   24 ar
    38   24   25 ar
    39   24   46 1
    40   25   26 ar
    41   25   47 1
    42   26   27 ar
    43   26   48 1
    44   27   28 ar
    45   27   49 1
    46   28   50 1
    47   29   34 ar
    48   29   30 ar
    49   30   31 ar
    50   30   51 1
    51   31   32 ar
    52   31   52 1
    53   32   33 ar
    54   32   35 1
    55   33   34 ar
    56   33   53 1
    57   34   54 1
@<TRIPOS>MOLECULE
ZINC08599849
   54    58     0     0     0
SMALL
USER_CHARGES

@<TRIPOS>ATOM
      1 C1         -3.2599    0.4791    3.5006 C.ar      1 <0>        -0.1308
      2 C2         -3.5980    0.8434    4.7891 C.ar      1 <0>        -0.0924
      3 C3         -4.1918   -0.0759    5.6361 C.ar      1 <0>        -0.0475
      4 C4         -4.4487   -1.3620    5.1945 C.ar      1 <0>        -0.0913
      5 C5         -4.1125   -1.7314    3.9069 C.ar      1 <0>        -0.1058
      6 C6         -3.5166   -0.8108    3.0550 C.ar      1 <0>         0.1459
      7 N1         -3.1753   -1.1825    1.7494 N.am      1 <0>        -0.6712
      8 C7         -2.7400   -2.4327    1.4966 C.2       1 <0>         0.5145
      9 O1         -2.7229   -3.2598    2.3836 O.2       1 <0>        -0.4928
     10 C8         -2.2744   -2.8029    0.1120 C.3       1 <0>        -0.1414
     11 C9         -1.9873   -4.3047    0.0550 C.3       1 <0>         0.1098
     12 H1         -1.3301   -4.5996    0.8731 H         1 <0>         0.1444
     13 C10        -3.2791   -5.0966    0.0967 C.2       1 <0>         0.5236
     14 O2         -4.1017   -5.1095    0.9872 O.2       1 <0>        -0.4262
     15 N2         -3.3235   -5.7826   -1.0625 N.am      1 <0>        -0.5193
     16 C11        -2.2504   -5.5368   -1.8228 C.2       1 <0>         0.7049
     17 O3         -2.0658   -6.0397   -2.9137 O.2       1 <0>        -0.5183
     18 N3         -1.3948   -4.6702   -1.2432 N.am      1 <0>        -0.6142
     19 C12        -0.1271   -4.1851   -1.7945 C.3       1 <0>         0.1964
     20 C13         0.9706   -5.1641   -1.4666 C.ar      1 <0>        -0.1173
     21 C14         1.6884   -5.0280   -0.2929 C.ar      1 <0>        -0.0889
     22 C15         2.6959   -5.9239    0.0125 C.ar      1 <0>        -0.1038
     23 C16         2.9891   -6.9608   -0.8582 C.ar      1 <0>         0.0440
     24 C17         2.2661   -7.0979   -2.0406 C.ar      1 <0>         0.0305
     25 C18         1.2539   -6.1997   -2.3374 C.ar      1 <0>        -0.0723
     26 O4          2.7403   -8.1838   -2.7184 O.3       1 <0>        -0.3062
     27 C19         4.0274   -8.4670   -2.1386 C.3       1 <0>         0.2125
     28 O5          3.9161   -7.9608   -0.7952 O.3       1 <0>        -0.3076
     29 C20        -4.3657   -6.6482   -1.4266 C.ar      1 <0>         0.1205
     30 C21        -4.2638   -7.4114   -2.5816 C.ar      1 <0>        -0.1044
     31 C22        -5.2909   -8.2630   -2.9385 C.ar      1 <0>        -0.1340
     32 C23        -6.4219   -8.3558   -2.1449 C.ar      1 <0>         0.0940
     33 C24        -6.5253   -7.5953   -0.9923 C.ar      1 <0>        -0.1335
     34 C25        -5.4977   -6.7468   -0.6292 C.ar      1 <0>        -0.1083
     35 F1         -7.4257   -9.1891   -2.4958 F         1 <0>        -0.1358
     36 Cl1        -4.6146    0.3849    7.2556 Cl        1 <0>        -0.0679
     37 H2         -2.8002    1.1981    2.8387 H         1 <0>         0.1358
     38 H3         -3.3986    1.8465    5.1362 H         1 <0>         0.1383
     39 H4         -4.9122   -2.0776    5.8575 H         1 <0>         0.1378
     40 H5         -4.3126   -2.7354    3.5630 H         1 <0>         0.1514
     41 H6         -3.2521   -0.5402    1.0265 H         1 <0>         0.4140
     42 H7         -3.0509   -2.5538   -0.6112 H         1 <0>         0.1097
     43 H8         -1.3656   -2.2500   -0.1257 H         1 <0>         0.1262
     44 H9         -0.2153   -4.0870   -2.8765 H         1 <0>         0.1068
     45 H10         0.1103   -3.2141   -1.3598 H         1 <0>         0.1068
     46 H11         1.4616   -4.2198    0.3867 H         1 <0>         0.1393
     47 H12         3.2550   -5.8152    0.9302 H         1 <0>         0.1390
     48 H13         0.6886   -6.3063   -3.2515 H         1 <0>         0.1421
     49 H14         4.2153   -9.5407   -2.1289 H         1 <0>         0.1342
     50 H15         4.8152   -7.9442   -2.6809 H         1 <0>         0.0876
     51 H16        -3.3820   -7.3389   -3.2009 H         1 <0>         0.1710
     52 H17        -5.2121   -8.8566   -3.8373 H         1 <0>         0.1447
     53 H18        -7.4081   -7.6690   -0.3745 H         1 <0>         0.1449
     54 H19        -5.5768   -6.1572    0.2721 H         1 <0>         0.1603
@<TRIPOS>BOND
     1    1    6 ar
     2    1    2 ar
     3    1   37 1
     4    2    3 ar
     5    2   38 1
     6    3    4 ar
     7    3   36 1
     8    4    5 ar
     9    4   39 1
    10    5    6 ar
    11    5   40 1
    12    6    7 1
    13    7    8 am
    14    7   41 1
    15    8    9 2
    16    8   10 1
    17   10   11 1
    18   10   42 1
    19   10   43 1
    20   11   12 1
    21   11   18 1
    22   11   13 1
    23   13   14 2
    24   13   15 am
    25   15   16 am
    26   15   29 1
    27   16   17 2
    28   16   18 am
    29   18   19 1
    30   19   20 1
    31   19   44 1
    32   19   45 1
    33   20   25 ar
    34   20   21 ar
    35   21   22 ar
    36   21   46 1
    37   22   23 ar
    38   22   47 1
    39   23   28 1
    40   23   24 ar
    41   24   25 ar
    42   24   26 1
    43   25   48 1
    44   26   27 1
    45   27   28 1
    46   27   49 1
    47   27   50 1
    48   29   34 ar
    49   29   30 ar
    50   30   31 ar
    51   30   51 1
    52   31   32 ar
    53   31   52 1
    54   32   33 ar
    55   32   35 1
    56   33   34 ar
    57   33   53 1
    58   34   54 1
@<TRIPOS>MOLECULE
ZINC16226778
   51    53     0     0     0
SMALL
USER_CHARGES

@<TRIPOS>ATOM
      1 C1         -0.0402    1.4248   -0.0010 C.3       1 <0>         0.0179
      2 O1         -0.0159   -0.0040   -0.0065 O.3       1 <0>        -0.2750
      3 C2          0.5875   -0.6057   -1.0622 C.ar      1 <0>         0.1994
      4 C3          1.1512    0.1605   -2.0716 C.ar      1 <0>        -0.2029
      5 C4          1.7651   -0.4525   -3.1455 C.ar      1 <0>        -0.0362
      6 C5          1.8237   -1.8356   -3.2241 C.ar      1 <0>        -0.0816
      7 C6          1.2685   -2.6126   -2.2296 C.ar      1 <0>        -0.0428
      8 C7          0.6489   -2.0041   -1.1345 C.ar      1 <0>        -0.1635
      9 C8          0.0583   -2.8286   -0.0642 C.2       1 <0>         0.5357
     10 O2         -0.4838   -2.2958    0.8844 O.2       1 <0>        -0.3776
     11 N1          0.1196   -4.1730   -0.1376 N.am      1 <0>        -0.6477
     12 C9         -0.4202   -4.9266    0.8407 C.2       1 <0>         0.5269
     13 S1         -1.0639   -4.1796    2.2402 S.2       1 <0>        -0.5272
     14 N2         -0.4533   -6.2683    0.7173 N.pl3     1 <0>        -0.5437
     15 C10         0.2010   -6.9312   -0.4195 C.3       1 <0>         0.0761
     16 C11         1.1883   -7.9723    0.1224 C.3       1 <0>         0.1378
     17 N3          0.4977   -8.7986    1.1224 N.pl3     1 <0>        -0.6788
     18 C12        -0.1566   -8.1357    2.2592 C.3       1 <0>         0.1362
     19 C13        -1.1392   -7.0950    1.7203 C.3       1 <0>         0.0857
     20 C14         0.4634  -10.1890    0.9945 C.ar      1 <0>         0.2713
     21 C15         1.4613  -10.9659    1.5698 C.ar      1 <0>        -0.1232
     22 C16         1.4241  -12.3403    1.4418 C.ar      1 <0>        -0.0141
     23 C17         0.3950  -12.9437    0.7419 C.ar      1 <0>        -0.1869
     24 C18        -0.5994  -12.1735    0.1678 C.ar      1 <0>         0.0001
     25 C19        -0.5714  -10.7985    0.2968 C.ar      1 <0>        -0.0644
     26 N4         -1.6396   -9.9753   -0.3128 N.pl3     1 <0>         0.0381
     27 O3         -2.5400  -10.5065   -0.9200 O.2       1 <0>        -0.1638
     28 O4         -1.6117   -8.7715   -0.2037 O.3       1 <0>        -0.1355
     29 C20         0.3578  -14.4439    0.6044 C.3       1 <0>         0.5151
     30 F1          1.4599  -15.0001    1.2626 F         1 <0>        -0.1697
     31 F2         -0.8220  -14.9352    1.1734 F         1 <0>        -0.1685
     32 F3          0.4009  -14.7892   -0.7507 F         1 <0>        -0.1692
     33 Cl1         2.5989   -2.5922   -4.5806 Cl        1 <0>        -0.0591
     34 H1          0.9811    1.8055   -0.0106 H         1 <0>         0.0606
     35 H2         -0.5697    1.7826   -0.8839 H         1 <0>         0.0607
     36 H3         -0.5504    1.7760    0.8959 H         1 <0>         0.1093
     37 H4          1.1096    1.2383   -2.0175 H         1 <0>         0.1496
     38 H5          2.2019    0.1487   -3.9291 H         1 <0>         0.1450
     39 H6          1.3159   -3.6896   -2.2946 H         1 <0>         0.1362
     40 H7          0.5522   -4.5982   -0.8946 H         1 <0>         0.4026
     41 H8         -0.5496   -7.4253   -1.0364 H         1 <0>         0.1096
     42 H9          0.7382   -6.1923   -1.0141 H         1 <0>         0.0782
     43 H10         1.5394   -8.6032   -0.6942 H         1 <0>         0.0857
     44 H11         2.0347   -7.4666    0.5871 H         1 <0>         0.0717
     45 H12        -0.6938   -8.8746    2.8538 H         1 <0>         0.0864
     46 H13         0.5940   -7.6416    2.8761 H         1 <0>         0.0738
     47 H14        -1.4868   -6.4643    2.5385 H         1 <0>         0.1327
     48 H15        -1.9874   -7.6010    1.2593 H         1 <0>         0.1010
     49 H16         2.2654  -10.4954    2.1161 H         1 <0>         0.1616
     50 H17         2.1997  -12.9448    1.8884 H         1 <0>         0.1612
     51 H18        -1.4012  -12.6477   -0.3787 H         1 <0>         0.1652
@<TRIPOS>BOND
     1    1    2 1
     2    1   34 1
     3    1   35 1
     4    1   36 1
     5    2    3 1
     6    3    8 ar
     7    3    4 ar
     8    4    5 ar
     9    4   37 1
    10    5    6 ar
    11    5   38 1
    12    6    7 ar
    13    6   33 1
    14    7    8 ar
    15    7   39 1
    16    8    9 1
    17    9   10 2
    18    9   11 am
    19   11   12 1
    20   11   40 1
    21   12   13 2
    22   12   14 1
    23   14   19 1
    24   14   15 1
    25   15   16 1
    26   15   41 1
    27   15   42 1
    28   16   17 1
    29   16   43 1
    30   16   44 1
    31   17   18 1
    32   17   20 1
    33   18   19 1
    34   18   45 1
    35   18   46 1
    36   19   47 1
    37   19   48 1
    38   20   25 ar
    39   20   21 ar
    40   21   22 ar
    41   21   49 1
    42   22   23 ar
    43   22   50 1
    44   23   24 ar
    45   23   29 1
    46   24   25 ar
    47   24   51 1
    48   25   26 1
    49   26   27 2
    50   26   28 1
    51   29   30 1
    52   29   31 1
    53   29   32 1
@<TRIPOS>MOLECULE
ZINC35558287
   65    69     0     0     0
SMALL
USER_CHARGES

@<TRIPOS>ATOM
      1 C1         -1.2008   -0.8884   -0.2748 C.3       1 <0>        -0.1458
      2 C2         -0.0031    0.0187    0.0145 C.3       1 <0>        -0.0562
      3 C3         -0.4937    1.4453    0.2695 C.3       1 <0>        -0.1450
      4 C4          0.7271   -0.4866    1.2321 C.ar      1 <0>        -0.0896
      5 C5          0.0679   -0.5758    2.4444 C.ar      1 <0>        -0.0948
      6 C6          0.7343   -1.0384    3.5621 C.ar      1 <0>        -0.1175
      7 C7          2.0678   -1.4147    3.4675 C.ar      1 <0>         0.1394
      8 C8          2.7268   -1.3243    2.2484 C.ar      1 <0>        -0.1426
      9 C9          2.0534   -0.8654    1.1334 C.ar      1 <0>        -0.0985
     10 N1          2.7459   -1.8834    4.5981 N.am      1 <0>        -0.6743
     11 C10         2.0849   -2.5917    5.5350 C.2       1 <0>         0.5171
     12 O1          0.9272   -2.9048    5.3538 O.2       1 <0>        -0.5125
     13 C11         2.7841   -2.9945    6.8077 C.3       1 <0>        -0.1044
     14 C12         3.9958   -3.8661    6.4698 C.3       1 <0>        -0.1259
     15 C13         4.7238   -4.2450    7.7633 C.3       1 <0>         0.1167
     16 N2          3.7635   -4.8757    8.6792 N.pl3     1 <0>        -0.9950
     17 C14         2.5201   -4.1618    9.0003 C.3       1 <0>         0.1155
     18 C15         1.8168   -3.7838    7.6929 C.3       1 <0>        -0.1128
     19 S1          4.0763   -6.3631    9.3365 S.o2      1 <0>         2.7246
     20 O2          2.8184   -6.9282    9.6794 O.2       1 <0>        -0.9385
     21 O3          4.9889   -7.0104    8.4606 O.2       1 <0>        -0.9419
     22 C16         4.9366   -6.0932   10.8503 C.2       1 <0>        -0.8012
     23 C17         4.4330   -5.9339   12.0952 C.2       1 <0>         0.0265
     24 C18         5.3612   -5.7337   13.1173 C.2       1 <0>        -0.1166
     25 C19         6.6835   -5.7137   12.7915 C.2       1 <0>        -0.1544
     26 S2          6.6916   -5.9684   11.1312 S.3       1 <0>         0.3458
     27 C20         4.9202   -5.5472   14.5201 C.2       1 <0>         0.3114
     28 N3          5.7281   -5.3426   15.5766 N.2       1 <0>        -0.5410
     29 C21         5.0196   -5.2185   16.6623 C.2       1 <0>         0.3102
     30 O4          3.7250   -5.3394   16.3415 O.3       1 <0>        -0.0978
     31 N4          3.6773   -5.5485   14.9380 N.2       1 <0>        -0.3356
     32 C22         5.5648   -4.9795   18.0468 C.3       1 <0>        -0.0393
     33 C23         4.7945   -5.7250   19.1494 C.3       1 <0>        -0.1311
     34 C24         4.9532   -4.4586   20.0072 C.3       1 <0>        -0.1373
     35 C25         5.0650   -3.6747   18.6890 C.3       1 <0>        -0.1270
     36 H1         -1.8753   -0.8837    0.5814 H         1 <0>         0.0569
     37 H2         -1.7290   -0.5229   -1.1555 H         1 <0>         0.0584
     38 H3         -0.8513   -1.9047   -0.4565 H         1 <0>         0.0561
     39 H4          0.6714    0.0140   -0.8417 H         1 <0>         0.0772
     40 H5         -1.1682    1.4500    1.1257 H         1 <0>         0.0566
     41 H6          0.3596    2.0915    0.4756 H         1 <0>         0.0557
     42 H7         -1.0219    1.8108   -0.6112 H         1 <0>         0.0584
     43 H8         -0.9691   -0.2830    2.5173 H         1 <0>         0.1242
     44 H9          0.2191   -1.1072    4.5088 H         1 <0>         0.1328
     45 H10         3.7639   -1.6158    2.1717 H         1 <0>         0.1248
     46 H11         2.5642   -0.7988    0.1841 H         1 <0>         0.1253
     47 H12         3.6918   -1.6985    4.7076 H         1 <0>         0.4101
     48 H13         3.1156   -2.1019    7.3381 H         1 <0>         0.1064
     49 H14         3.6627   -4.7709    5.9614 H         1 <0>         0.0808
     50 H15         4.6730   -3.3116    5.8202 H         1 <0>         0.0837
     51 H16         5.5281   -4.9454    7.5382 H         1 <0>         0.1022
     52 H17         5.1361   -3.3486    8.2266 H         1 <0>         0.0782
     53 H18         1.8704   -4.8072    9.5914 H         1 <0>         0.1012
     54 H19         2.7527   -3.2586    9.5645 H         1 <0>         0.0756
     55 H20         0.9431   -3.1706    7.9139 H         1 <0>         0.0889
     56 H21         1.5042   -4.6894    7.1730 H         1 <0>         0.0810
     57 H22         3.3706   -5.9600   12.2876 H         1 <0>         0.1608
     58 H23         7.5293   -5.5718   13.4479 H         1 <0>         0.2091
     59 H24         6.6457   -5.1082   18.1040 H         1 <0>         0.1391
     60 H25         3.7605   -5.9471   18.8858 H         1 <0>         0.0939
     61 H26         5.3266   -6.5900   19.5452 H         1 <0>         0.0845
     62 H27         4.0651   -4.2109   20.5886 H         1 <0>         0.0812
     63 H28         5.8667   -4.4456   20.6017 H         1 <0>         0.0911
     64 H29         5.8154   -2.8845   18.7131 H         1 <0>         0.0849
     65 H30         4.1048   -3.3362   18.2995 H         1 <0>         0.0909
@<TRIPOS>BOND
     1    1    2 1
     2    1   36 1
     3    1   37 1
     4    1   38 1
     5    2    3 1
     6    2    4 1
     7    2   39 1
     8    3   40 1
     9    3   41 1
    10    3   42 1
    11    4    9 ar
    12    4    5 ar
    13    5    6 ar
    14    5   43 1
    15    6    7 ar
    16    6   44 1
    17    7    8 ar
    18    7   10 1
    19    8    9 ar
    20    8   45 1
    21    9   46 1
    22   10   11 am
    23   10   47 1
    24   11   12 2
    25   11   13 1
    26   13   18 1
    27   13   14 1
    28   13   48 1
    29   14   15 1
    30   14   49 1
    31   14   50 1
    32   15   16 1
    33   15   51 1
    34   15   52 1
    35   16   17 1
    36   16   19 1
    37   17   18 1
    38   17   53 1
    39   17   54 1
    40   18   55 1
    41   18   56 1
    42   19   20 2
    43   19   21 2
    44   19   22 1
    45   22   26 1
    46   22   23 2
    47   23   24 1
    48   23   57 1
    49   24   25 2
    50   24   27 1
    51   25   26 1
    52   25   58 1
    53   27   31 2
    54   27   28 1
    55   28   29 2
    56   29   30 1
    57   29   32 1
    58   30   31 1
    59   32   35 1
    60   32   33 1
    61   32   59 1
    62   33   34 1
    63   33   60 1
    64   33   61 1
    65   34   35 1
    66   34   62 1
    67   34   63 1
    68   35   64 1
    69   35   65 1
@<TRIPOS>MOLECULE
ZINC17121146
   35    36     0     0     0
SMALL
USER_CHARGES
[(2-chloro-5-methoxy-1,6-dimethyl-4,7-dioxo-indol-3-yl)methyleneamino]thiourea
@<TRIPOS>ATOM
      1 C1          0.0390    1.2439   -0.0337 C.3       1 <0>        -0.1094
      2 C2         -0.6945    1.6421    1.2211 C.2       1 <0>        -0.1355
      3 C3         -0.0291    1.6961    2.3928 C.2       1 <0>         0.0798
      4 C4         -0.7381    2.0868    3.6347 C.2       1 <0>         0.4287
      5 O1         -0.1399    2.1359    4.6913 O.2       1 <0>        -0.4104
      6 C5         -2.1704    2.4137    3.5789 C.2       1 <0>        -0.1461
      7 C6         -3.1538    2.8251    4.5803 C.2       1 <0>        -0.0682
      8 C7         -4.3534    2.9833    3.8934 C.2       1 <0>         0.1316
      9 N1         -4.1552    2.7033    2.5962 N.pl3     1 <0>        -0.3725
     10 C8         -2.8509    2.3557    2.3681 C.2       1 <0>        -0.0031
     11 C9         -2.1222    1.9719    1.1521 C.2       1 <0>         0.4621
     12 O2         -2.7060    1.9225    0.0843 O.2       1 <0>        -0.4197
     13 C10        -5.1934    2.7615    1.5643 C.3       1 <0>         0.0445
     14 Cl1        -5.8635    3.4661    4.6008 Cl        1 <0>         0.0305
     15 C11        -2.9228    3.0283    6.0163 C.2       1 <0>         0.1819
     16 N2         -3.9039    3.3977    6.7872 N.2       1 <0>        -0.2828
     17 N3         -3.6835    3.5916    8.1571 N.pl3     1 <0>        -0.5344
     18 C12        -4.6996    3.9743    8.9556 C.2       1 <0>         0.6047
     19 S1         -4.4303    4.2112   10.6296 S.2       1 <0>        -0.6135
     20 N4         -5.9277    4.1704    8.4363 N.pl3     1 <0>        -0.7863
     21 O3          1.2906    1.3932    2.4350 O.3       1 <0>        -0.3068
     22 C13         1.6644    0.2217    3.1630 C.3       1 <0>         0.0284
     23 H1          0.0628    0.1569   -0.1112 H         1 <0>         0.0843
     24 H2          1.0584    1.6279    0.0039 H         1 <0>         0.0889
     25 H3         -0.4738    1.6589   -0.9014 H         1 <0>         0.0830
     26 H4         -5.6825    1.7906    1.4857 H         1 <0>         0.0981
     27 H5         -5.9302    3.5188    1.8325 H         1 <0>         0.1004
     28 H6         -4.7402    3.0185    0.6069 H         1 <0>         0.1126
     29 H7         -1.9387    2.8711    6.4325 H         1 <0>         0.1461
     30 H8         -2.7996    3.4504    8.5309 H         1 <0>         0.4206
     31 H9         -6.0803    4.0362    7.4878 H         1 <0>         0.4047
     32 H10        -6.6590    4.4458    9.0110 H         1 <0>         0.4323
     33 H11         1.2827    0.2898    4.1817 H         1 <0>         0.0622
     34 H12         1.2444   -0.6583    2.6757 H         1 <0>         0.0562
     35 H13         2.7510    0.1400    3.1867 H         1 <0>         0.1071
@<TRIPOS>BOND
     1    1    2 1
     2    1   23 1
     3    1   24 1
     4    1   25 1
     5    2   11 1
     6    2    3 2
     7    3    4 1
     8    3   21 1
     9    4    5 2
    10    4    6 1
    11    6   10 2
    12    6    7 1
    13    7    8 2
    14    7   15 1
    15    8    9 1
    16    8   14 1
    17    9   10 1
    18    9   13 1
    19   10   11 1
    20   11   12 2
    21   13   26 1
    22   13   27 1
    23   13   28 1
    24   15   16 2
    25   15   29 1
    26   16   17 1
    27   17   18 1
    28   17   30 1
    29   18   19 2
    30   18   20 1
    31   20   31 1
    32   20   32 1
    33   21   22 1
    34   22   33 1
    35   22   34 1
    36   22   35 1
@<TRIPOS>MOLECULE
ZINC40539027
   44    46     0     0     0
SMALL
USER_CHARGES

@<TRIPOS>ATOM
      1 C1          1.4503    1.7297   -0.0753 C.3       1 <0>        -0.0869
      2 C2          0.7361    0.4034   -0.1214 C.2       1 <0>        -0.1445
      3 C3          0.4929   -0.3459   -1.2076 C.2       1 <0>        -0.0075
      4 O1         -0.1654   -1.4555   -0.8380 O.3       1 <0>        -0.1680
      5 C4         -0.3723   -1.4700    0.4824 C.2       1 <0>         0.0519
      6 C5          0.1692   -0.3368    1.0154 C.2       1 <0>        -0.2369
      7 C6          0.1804    0.0633    2.4335 C.2       1 <0>         0.6009
      8 O2         -0.7331    0.7269    2.8854 O.2       1 <0>        -0.5071
      9 N1          1.2031   -0.3061    3.2298 N.am      1 <0>        -0.6651
     10 C7          1.2634    0.1537    4.5493 C.ar      1 <0>         0.1483
     11 C8          0.0951    0.3248    5.2809 C.ar      1 <0>        -0.1087
     12 C9          0.1581    0.7790    6.5834 C.ar      1 <0>        -0.0973
     13 C10         1.3827    1.0636    7.1597 C.ar      1 <0>        -0.1135
     14 C11         2.5475    0.8944    6.4342 C.ar      1 <0>        -0.0841
     15 C12         2.4918    0.4349    5.1328 C.ar      1 <0>        -0.1171
     16 C13         3.8797    1.2062    7.0660 C.3       1 <0>         0.1681
     17 C14         4.5345    2.3859    6.3752 C.2       1 <0>         0.5371
     18 O3          4.8708    2.4594    5.2127 O.2       1 <0>        -0.4543
     19 N2          4.6643    3.3363    7.3218 N.am      1 <0>        -0.6787
     20 C15         4.1875    2.9253    8.5024 C.2       1 <0>         0.7070
     21 O4          4.1947    3.6073    9.5083 O.2       1 <0>        -0.5364
     22 N3          3.6997    1.6726    8.4516 N.am      1 <0>        -0.7161
     23 C16         4.7932   -0.0205    7.0253 C.3       1 <0>        -0.1451
     24 C17        -1.0787   -2.5560    1.2523 C.3       1 <0>        -0.0842
     25 C18         0.8942    0.0032   -2.6176 C.3       1 <0>        -0.0749
     26 H1          2.5181    1.5626    0.0655 H         1 <0>         0.0727
     27 H2          1.2864    2.2633   -1.0115 H         1 <0>         0.0728
     28 H3          1.0628    2.3223    0.7534 H         1 <0>         0.0669
     29 H4          1.8973   -0.8910    2.8878 H         1 <0>         0.4144
     30 H5         -0.8616    0.1031    4.8314 H         1 <0>         0.1426
     31 H6         -0.7500    0.9126    7.1526 H         1 <0>         0.1327
     32 H7          1.4293    1.4191    8.1784 H         1 <0>         0.1279
     33 H8          3.4023    0.2987    4.5681 H         1 <0>         0.1354
     34 H9          5.0556    4.2102    7.1665 H         1 <0>         0.4353
     35 H10         3.3060    1.1739    9.1845 H         1 <0>         0.4431
     36 H11         4.9542   -0.3195    5.9895 H         1 <0>         0.0865
     37 H12         5.7504    0.2238    7.4859 H         1 <0>         0.0740
     38 H13         4.3258   -0.8399    7.5715 H         1 <0>         0.0850
     39 H14        -1.3999   -3.3385    0.5649 H         1 <0>         0.0865
     40 H15        -0.3983   -2.9786    1.9916 H         1 <0>         0.0902
     41 H16        -1.9487   -2.1363    1.7572 H         1 <0>         0.0929
     42 H17         1.8865   -0.3984   -2.8230 H         1 <0>         0.0843
     43 H18         0.1765   -0.4264   -3.3165 H         1 <0>         0.0791
     44 H19         0.9097    1.0870   -2.7332 H         1 <0>         0.0910
@<TRIPOS>BOND
     1    1    2 1
     2    1   26 1
     3    1   27 1
     4    1   28 1
     5    2    6 1
     6    2    3 2
     7    3    4 1
     8    3   25 1
     9    4    5 1
    10    5    6 2
    11    5   24 1
    12    6    7 1
    13    7    8 2
    14    7    9 am
    15    9   10 1
    16    9   29 1
    17   10   15 ar
    18   10   11 ar
    19   11   12 ar
    20   11   30 1
    21   12   13 ar
    22   12   31 1
    23   13   14 ar
    24   13   32 1
    25   14   15 ar
    26   14   16 1
    27   15   33 1
    28   16   22 1
    29   16   17 1
    30   16   23 1
    31   17   18 2
    32   17   19 am
    33   19   20 am
    34   19   34 1
    35   20   21 2
    36   20   22 am
    37   22   35 1
    38   23   36 1
    39   23   37 1
    40   23   38 1
    41   24   39 1
    42   24   40 1
    43   24   41 1
    44   25   42 1
    45   25   43 1
    46   25   44 1
@<TRIPOS>MOLECULE
ZINC20634169
   48    50     0     0     0
SMALL
USER_CHARGES

@<TRIPOS>ATOM
      1 C1         -0.0184    1.5028    0.0103 C.3       1 <0>        -0.1148
      2 C2          0.0021   -0.0041    0.0020 C.ar      1 <0>        -0.1069
      3 C3          0.0056   -0.6837   -1.2140 C.ar      1 <0>        -0.0689
      4 C4          0.0239   -2.0453   -1.2582 C.ar      1 <0>        -0.1171
      5 C5          0.0399   -2.7773   -0.0614 C.ar      1 <0>         0.1854
      6 C6          0.0368   -2.0837    1.1768 C.ar      1 <0>        -0.1897
      7 C7          0.0225   -0.6818    1.1842 C.ar      1 <0>        -0.0652
      8 C8          0.0536   -2.8357    2.3674 C.ar      1 <0>         0.2448
      9 N1          0.0715   -4.1479    2.2823 N.ar      1 <0>        -0.5125
     10 C9          0.0739   -4.7716    1.0996 C.ar      1 <0>         0.5347
     11 N2          0.0586   -4.1150   -0.0509 N.ar      1 <0>        -0.5785
     12 N3          0.0932   -6.1311    1.0769 N.2       1 <0>        -0.5631
     13 C10         0.0960   -6.7706   -0.0747 C.2       1 <0>         0.6848
     14 N4          0.0857   -6.1032   -1.2847 N.pl3     1 <0>        -0.7307
     15 C11        -0.7687   -6.6566   -2.3481 C.3       1 <0>         0.2811
     16 N5         -0.5098   -8.1010   -2.4576 N.3       1 <0>        -0.5549
     17 C12        -0.7437   -8.7760   -1.1711 C.3       1 <0>         0.2856
     18 N6          0.1153   -8.1504   -0.1478 N.pl3     1 <0>        -0.7266
     19 C13        -1.3229   -8.7023   -3.5231 C.3       1 <0>         0.1173
     20 C14        -2.8063   -8.4920   -3.2128 C.3       1 <0>        -0.1822
     21 C15        -0.9825   -8.0402   -4.8597 C.3       1 <0>        -0.1372
     22 C16        -1.0269  -10.2011   -3.6063 C.3       1 <0>         0.0863
     23 O1         -1.8178  -10.7860   -4.6428 O.3       1 <0>        -0.5676
     24 C17         0.0516   -2.1514    3.7101 C.3       1 <0>        -0.1117
     25 H1          1.0042    1.8801    0.0026 H         1 <0>         0.0721
     26 H2         -0.5455    1.8639   -0.8728 H         1 <0>         0.0681
     27 H3         -0.5286    1.8543    0.9071 H         1 <0>         0.0680
     28 H4         -0.0067   -0.1223   -2.1365 H         1 <0>         0.1308
     29 H5          0.0257   -2.5581   -2.2088 H         1 <0>         0.1339
     30 H6          0.0240   -0.1429    2.1202 H         1 <0>         0.1341
     31 H7         -1.8167   -6.4909   -2.0983 H         1 <0>         0.0445
     32 H8         -0.5349   -6.1703   -3.2952 H         1 <0>         0.1005
     33 H9         -1.7910   -8.6705   -0.8879 H         1 <0>         0.0485
     34 H10        -0.4916   -9.8326   -1.2614 H         1 <0>         0.1040
     35 H11         0.6671   -8.6813    0.4477 H         1 <0>         0.4267
     36 H12        -3.0172   -7.4242   -3.1535 H         1 <0>         0.0592
     37 H13        -3.4097   -8.9381   -4.0034 H         1 <0>         0.0789
     38 H14        -3.0488   -8.9637   -2.2606 H         1 <0>         0.0567
     39 H15         0.0743   -8.1900   -5.0807 H         1 <0>         0.0652
     40 H16        -1.5859   -8.4863   -5.6503 H         1 <0>         0.0747
     41 H17        -1.1934   -6.9724   -4.8003 H         1 <0>         0.0560
     42 H18         0.0299  -10.3509   -3.8273 H         1 <0>         0.0586
     43 H19        -1.2694  -10.6728   -2.6541 H         1 <0>         0.0463
     44 H20        -1.6814  -11.7370   -4.7525 H         1 <0>         0.3850
     45 H21        -0.9764   -2.0004    4.0394 H         1 <0>         0.0916
     46 H22         0.5780   -2.7722    4.4350 H         1 <0>         0.0892
     47 H23         0.5519   -1.1866    3.6269 H         1 <0>         0.0846
     48 H24         0.6180   -5.3049   -1.4271 H         1 <0>         0.4304
@<TRIPOS>BOND
     1    1    2 1
     2    1   25 1
     3    1   26 1
     4    1   27 1
     5    2    7 ar
     6    2    3 ar
     7    3    4 ar
     8    3   28 1
     9    4    5 ar
    10    4   29 1
    11    5   11 ar
    12    5    6 ar
    13    6    7 ar
    14    6    8 ar
    15    7   30 1
    16    8    9 ar
    17    8   24 1
    18    9   10 ar
    19   10   11 ar
    20   10   12 1
    21   12   13 2
    22   13   18 1
    23   13   14 1
    24   14   15 1
    25   14   48 1
    26   15   16 1
    27   15   31 1
    28   15   32 1
    29   16   17 1
    30   16   19 1
    31   17   18 1
    32   17   33 1
    33   17   34 1
    34   18   35 1
    35   19   20 1
    36   19   21 1
    37   19   22 1
    38   20   36 1
    39   20   37 1
    40   20   38 1
    41   21   39 1
    42   21   40 1
    43   21   41 1
    44   22   23 1
    45   22   42 1
    46   22   43 1
    47   23   44 1
    48   24   45 1
    49   24   46 1
    50   24   47 1
@<TRIPOS>MOLECULE
ZINC64446965
   45    48     0     0     0
SMALL
USER_CHARGES

@<TRIPOS>ATOM
      1 C1         -0.0156    1.2982    0.0092 C.2       1 <0>         0.1749
      2 C2          1.3209    1.7653   -0.0011 C.2       1 <0>        -0.2561
      3 C3          2.1450    0.6450   -0.0150 C.2       1 <0>         0.4507
      4 N1          1.3289   -0.4481   -0.0130 N.am      1 <0>        -0.3865
      5 N2          0.0021   -0.0041    0.0020 N.2       1 <0>        -0.2869
      6 C4          1.7313   -1.7344   -0.0242 C.2       1 <0>         0.5597
      7 O1          2.9103   -1.9984   -0.0373 O.2       1 <0>        -0.4874
      8 C5          0.7107   -2.8432   -0.0203 C.3       1 <0>         0.1143
      9 N3          1.3963   -4.1379   -0.0343 N.am      1 <0>        -0.7276
     10 C6          0.6801   -5.2796   -0.0337 C.2       1 <0>         0.5290
     11 O2         -0.5318   -5.2353   -0.0215 O.2       1 <0>        -0.5276
     12 C7          1.3853   -6.6114   -0.0480 C.3       1 <0>        -0.0663
     13 C8          2.2490   -6.7176   -1.3065 C.3       1 <0>        -0.1013
     14 C9          2.9650   -8.0696   -1.3211 C.3       1 <0>        -0.0840
     15 C10         1.9289   -9.1954   -1.3172 C.3       1 <0>        -0.1108
     16 C11         1.0651   -9.0892   -0.0587 C.3       1 <0>        -0.0869
     17 C12         0.3492   -7.7372   -0.0441 C.3       1 <0>        -0.0877
     18 C13         1.9535   -9.2094    1.1812 C.3       1 <0>        -0.1108
     19 C14         2.9896   -8.0836    1.1773 C.3       1 <0>        -0.0840
     20 C15         3.8533   -8.1898   -0.0811 C.3       1 <0>        -0.1105
     21 C16         2.2736   -6.7315    1.1919 C.3       1 <0>        -0.1013
     22 N4          3.5233    0.6402   -0.0285 N.pl3     1 <0>        -0.8086
     23 C17         1.7443    3.1333    0.0015 C.1       1 <0>         0.2892
     24 N5          2.0801    4.2185    0.0036 N.1       1 <0>        -0.4270
     25 H1         -0.9004    1.9173    0.0250 H         1 <0>         0.2108
     26 H2          0.0954   -2.7676    0.8762 H         1 <0>         0.1193
     27 H3          0.0779   -2.7576   -0.9037 H         1 <0>         0.1193
     28 H4          2.3656   -4.1733   -0.0441 H         1 <0>         0.4105
     29 H5          1.6162   -6.6320   -2.1898 H         1 <0>         0.0694
     30 H6          2.9872   -5.9155   -1.3092 H         1 <0>         0.0663
     31 H7          3.5803   -8.1453   -2.2176 H         1 <0>         0.0752
     32 H8          1.2960   -9.1098   -2.2005 H         1 <0>         0.0638
     33 H9          2.4389  -10.1587   -1.3276 H         1 <0>         0.0651
     34 H10         0.3270   -9.8913   -0.0560 H         1 <0>         0.0755
     35 H11        -0.2661   -7.6615    0.8524 H         1 <0>         0.0708
     36 H12        -0.2836   -7.6516   -0.9275 H         1 <0>         0.0708
     37 H13         1.3381   -9.1337    2.0777 H         1 <0>         0.0638
     38 H14         2.4635  -10.1726    1.1708 H         1 <0>         0.0651
     39 H15         3.6224   -8.1692    2.0606 H         1 <0>         0.0752
     40 H16         4.3633   -9.1530   -0.0916 H         1 <0>         0.0660
     41 H17         4.5914   -7.3877   -0.0839 H         1 <0>         0.0633
     42 H18         3.0118   -5.9295    1.1891 H         1 <0>         0.0664
     43 H19         1.6583   -6.6559    2.0884 H         1 <0>         0.0694
     44 H20         4.0112    1.4786   -0.0287 H         1 <0>         0.4246
     45 H21         4.0053   -0.2015   -0.0380 H         1 <0>         0.4234
@<TRIPOS>BOND
     1    1    5 2
     2    1    2 1
     3    1   25 1
     4    2    3 2
     5    2   23 1
     6    3    4 1
     7    3   22 1
     8    4    5 1
     9    4    6 am
    10    6    7 2
    11    6    8 1
    12    8    9 1
    13    8   26 1
    14    8   27 1
    15    9   10 am
    16    9   28 1
    17   10   11 2
    18   10   12 1
    19   12   17 1
    20   12   21 1
    21   12   13 1
    22   13   14 1
    23   13   29 1
    24   13   30 1
    25   14   20 1
    26   14   15 1
    27   14   31 1
    28   15   16 1
    29   15   32 1
    30   15   33 1
    31   16   17 1
    32   16   18 1
    33   16   34 1
    34   17   35 1
    35   17   36 1
    36   18   19 1
    37   18   37 1
    38   18   38 1
    39   19   20 1
    40   19   21 1
    41   19   39 1
    42   20   40 1
    43   20   41 1
    44   21   42 1
    45   21   43 1
    46   22   44 1
    47   22   45 1
    48   23   24 3
@<TRIPOS>MOLECULE
ZINC67246421
   46    49     0     0     0
SMALL
USER_CHARGES

@<TRIPOS>ATOM
      1 C1          0.0622    1.5032    0.0153 C.3       1 <0>        -0.1075
      2 C2          0.0516   -0.0037    0.0033 C.ar      1 <0>        -0.0725
      3 C3          0.6314   -0.6800   -1.0267 C.ar      1 <0>        -0.0862
      4 C4          0.6359   -2.0705   -1.0630 C.ar      1 <0>        -0.1123
      5 C5          0.0497   -2.8018   -0.0513 C.ar      1 <0>         0.1495
      6 C6         -0.5577   -2.1263    1.0273 C.ar      1 <0>        -0.1097
      7 C7         -0.5515   -0.7099    1.0578 C.ar      1 <0>         0.1412
      8 N1         -1.1220   -0.0648    2.0811 N.ar      1 <0>        -0.4657
      9 C8         -1.6869   -0.7171    3.0681 C.ar      1 <0>         0.1304
     10 C9         -1.7214   -2.1089    3.1016 C.ar      1 <0>        -0.1724
     11 C10        -1.1678   -2.8292    2.0804 C.ar      1 <0>        -0.0620
     12 N2          0.0572   -4.1963   -0.0946 N.am      1 <0>        -0.6698
     13 C11        -0.0418   -4.8342   -1.2777 C.2       1 <0>         0.5196
     14 O1         -0.0551   -4.1983   -2.3104 O.2       1 <0>        -0.5068
     15 C12        -0.1361   -6.3378   -1.3174 C.3       1 <0>        -0.1017
     16 C13         1.1123   -6.9442   -0.6733 C.3       1 <0>        -0.1220
     17 C14         1.0097   -8.4712   -0.7031 C.3       1 <0>        -0.1099
     18 C15         0.8800   -8.9468   -2.1459 C.3       1 <0>         0.1203
     19 C16        -0.3465   -8.3305   -2.8097 C.3       1 <0>        -0.1124
     20 C17        -0.2384   -6.8040   -2.7712 C.3       1 <0>        -0.1092
     21 C18         2.1288   -8.6093   -2.9274 C.2       1 <0>         0.5316
     22 O2          2.5823   -7.5064   -3.1457 O.2       1 <0>        -0.4501
     23 N3          2.6326   -9.7940   -3.3309 N.am      1 <0>        -0.6812
     24 C19         1.8784  -10.8183   -2.9138 C.2       1 <0>         0.7041
     25 O3          2.1288  -11.9834   -3.1528 O.2       1 <0>        -0.5384
     26 N4          0.8111  -10.4128   -2.1995 N.am      1 <0>        -0.7184
     27 H1          0.9598    1.8561    0.5232 H         1 <0>         0.0714
     28 H2          0.0546    1.8747   -1.0094 H         1 <0>         0.0659
     29 H3         -0.8201    1.8686    0.5408 H         1 <0>         0.0773
     30 H4          1.0956   -0.1270   -1.8299 H         1 <0>         0.1346
     31 H5          1.1027   -2.5824   -1.8915 H         1 <0>         0.1462
     32 H6         -2.1372   -0.1605    3.8767 H         1 <0>         0.1611
     33 H7         -2.1938   -2.6183    3.9284 H         1 <0>         0.1391
     34 H8         -1.1860   -3.9090    2.0896 H         1 <0>         0.1324
     35 H9          0.1338   -4.7066    0.7267 H         1 <0>         0.4095
     36 H10        -1.0211   -6.6609   -0.7692 H         1 <0>         0.1050
     37 H11         1.9967   -6.6284   -1.2266 H         1 <0>         0.0914
     38 H12         1.1894   -6.6052    0.3598 H         1 <0>         0.0787
     39 H13         1.9054   -8.9040   -0.2574 H         1 <0>         0.0820
     40 H14         0.1338   -8.7873   -0.1366 H         1 <0>         0.0919
     41 H15        -0.4048   -8.6643   -3.8457 H         1 <0>         0.0817
     42 H16        -1.2440   -8.6444   -2.2766 H         1 <0>         0.0899
     43 H17        -1.1232   -6.3652   -3.2323 H         1 <0>         0.0846
     44 H18         0.6506   -6.4887   -3.3174 H         1 <0>         0.0923
     45 H19         3.4408   -9.8915   -3.8583 H         1 <0>         0.4342
     46 H20         0.1314  -10.9775   -1.7993 H         1 <0>         0.4422
@<TRIPOS>BOND
     1    1    2 1
     2    1   27 1
     3    1   28 1
     4    1   29 1
     5    2    7 ar
     6    2    3 ar
     7    3    4 ar
     8    3   30 1
     9    4    5 ar
    10    4   31 1
    11    5    6 ar
    12    5   12 1
    13    6   11 ar
    14    6    7 ar
    15    7    8 ar
    16    8    9 ar
    17    9   10 ar
    18    9   32 1
    19   10   11 ar
    20   10   33 1
    21   11   34 1
    22   12   13 am
    23   12   35 1
    24   13   14 2
    25   13   15 1
    26   15   20 1
    27   15   16 1
    28   15   36 1
    29   16   17 1
    30   16   37 1
    31   16   38 1
    32   17   18 1
    33   17   39 1
    34   17   40 1
    35   18   26 1
    36   18   19 1
    37   18   21 1
    38   19   20 1
    39   19   41 1
    40   19   42 1
    41   20   43 1
    42   20   44 1
    43   21   22 2
    44   21   23 am
    45   23   24 am
    46   23   45 1
    47   24   25 2
    48   24   26 am
    49   26   46 1
@<TRIPOS>MOLECULE
ZINC14930833
   60    63     0     0     0
SMALL
USER_CHARGES
[(2S,3S,4S,5S,6S)-3,4,5-trihydroxy-6-[5-hydroxy-2-(4-hydroxyphenyl)-4-oxo-chromen-7-yl]oxy-tetrahydropyran-2-yl]methyl (E)-but-2-enoate
@<TRIPOS>ATOM
      1 C1         -0.9277    1.7216    6.0940 C.3       1 <0>        -0.1394
      2 C2         -0.2768    1.2730    4.8110 C.2       1 <0>        -0.0441
      3 C3         -0.7986    1.6300    3.6399 C.2       1 <0>        -0.2084
      4 C4         -0.1639    1.1925    2.3888 C.2       1 <0>         0.4978
      5 O1          0.8375    0.5047    2.4236 O.2       1 <0>        -0.5139
      6 O2         -0.6923    1.5541    1.2026 O.3       1 <0>        -0.3465
      7 C5         -0.0127    1.0858    0.0080 C.3       1 <0>         0.0799
      8 C6         -0.7527    1.5927   -1.2315 C.3       1 <0>         0.1056
      9 H1         -0.8453    2.6775   -1.1813 H         1 <0>         0.1025
     10 C7          0.0310    1.2048   -2.4881 C.3       1 <0>         0.0873
     11 H2          1.0079    1.6879   -2.4718 H         1 <0>         0.0902
     12 C8         -0.7460    1.6623   -3.7265 C.3       1 <0>         0.0870
     13 H3         -0.2219    1.3411   -4.6266 H         1 <0>         0.0763
     14 C9         -2.1447    1.0385   -3.6977 C.3       1 <0>         0.0621
     15 H4         -2.0606   -0.0469   -3.7518 H         1 <0>         0.1026
     16 C10        -2.8442    1.4330   -2.3943 C.3       1 <0>         0.2177
     17 H5         -3.8237    0.9571   -2.3488 H         1 <0>         0.1169
     18 O3         -2.0543    1.0051   -1.2829 O.3       1 <0>        -0.3582
     19 O4         -3.0015    2.8526   -2.3487 O.3       1 <0>        -0.2908
     20 C11        -3.6990    3.3621   -1.3014 C.ar      1 <0>         0.2081
     21 C12        -4.2199    2.5044   -0.3385 C.ar      1 <0>        -0.2479
     22 C13        -4.9318    3.0126    0.7321 C.ar      1 <0>         0.2390
     23 C14        -5.1236    4.3959    0.8386 C.ar      1 <0>        -0.2878
     24 C15        -5.8751    4.9793    1.9628 C.2       1 <0>         0.4249
     25 O5         -6.3547    4.2763    2.8376 O.2       1 <0>        -0.4589
     26 C16        -6.0189    6.3867    1.9894 C.2       1 <0>        -0.3111
     27 C17        -5.4692    7.1358    0.9959 C.2       1 <0>         0.2075
     28 O6         -4.7858    6.5922   -0.0238 O.3       1 <0>        -0.2176
     29 C18        -4.5962    5.2604   -0.1359 C.ar      1 <0>         0.1991
     30 C19        -3.8803    4.7325   -1.1992 C.ar      1 <0>        -0.1849
     31 C20        -5.6297    8.6014    1.0410 C.ar      1 <0>        -0.0833
     32 C21        -6.3405    9.1968    2.0869 C.ar      1 <0>        -0.0621
     33 C22        -6.4838   10.5660    2.1276 C.ar      1 <0>        -0.1475
     34 C23        -5.9321   11.3546    1.1251 C.ar      1 <0>         0.1345
     35 C24        -5.2291   10.7663    0.0804 C.ar      1 <0>        -0.1495
     36 C25        -5.0765    9.3983    0.0347 C.ar      1 <0>        -0.0607
     37 O7         -6.0806   12.7034    1.1660 O.3       1 <0>        -0.4970
     38 O8         -5.4406    2.1774    1.6731 O.3       1 <0>        -0.4738
     39 O9         -2.9043    1.5148   -4.8104 O.3       1 <0>        -0.5499
     40 O10        -0.8577    3.0869   -3.7210 O.3       1 <0>        -0.5416
     41 O11         0.1990   -0.2138   -2.5273 O.3       1 <0>        -0.5446
     42 H6         -0.3632    1.3348    6.9424 H         1 <0>         0.0743
     43 H7         -0.9415    2.8108    6.1329 H         1 <0>         0.0812
     44 H8         -1.9493    1.3436    6.1347 H         1 <0>         0.0822
     45 H9          0.6130    0.6617    4.8419 H         1 <0>         0.1290
     46 H10        -1.6884    2.2412    3.6090 H         1 <0>         0.1375
     47 H11         0.0021   -0.0041    0.0020 H         1 <0>         0.0912
     48 H12         1.0099    1.4631    0.0003 H         1 <0>         0.0881
     49 H13        -4.0682    1.4388   -0.4275 H         1 <0>         0.1518
     50 H14        -6.5609    6.8629    2.7931 H         1 <0>         0.1618
     51 H15        -3.4673    5.3891   -1.9507 H         1 <0>         0.1534
     52 H16        -6.7734    8.5844    2.8641 H         1 <0>         0.1412
     53 H17        -7.0296   11.0272    2.9374 H         1 <0>         0.1407
     54 H18        -4.8017   11.3829   -0.6964 H         1 <0>         0.1388
     55 H19        -4.5297    8.9420   -0.7772 H         1 <0>         0.1407
     56 H20        -6.8716   13.0259    0.7129 H         1 <0>         0.3980
     57 H21        -4.8401    2.0036    2.4108 H         1 <0>         0.4022
     58 H22        -3.8040    1.1627   -4.8521 H         1 <0>         0.3895
     59 H23        -1.3452    3.4461   -4.4750 H         1 <0>         0.3932
     60 H24         0.6882   -0.5308   -3.2988 H         1 <0>         0.3855
@<TRIPOS>BOND
     1    1    2 1
     2    1   42 1
     3    1   43 1
     4    1   44 1
     5    2    3 2
     6    2   45 1
     7    3    4 1
     8    3   46 1
     9    4    5 2
    10    4    6 1
    11    6    7 1
    12    7    8 1
    13    7   47 1
    14    7   48 1
    15    8    9 1
    16    8   18 1
    17    8   10 1
    18   10   11 1
    19   10   12 1
    20   10   41 1
    21   12   13 1
    22   12   14 1
    23   12   40 1
    24   14   15 1
    25   14   16 1
    26   14   39 1
    27   16   17 1
    28   16   18 1
    29   16   19 1
    30   19   20 1
    31   20   30 ar
    32   20   21 ar
    33   21   22 ar
    34   21   49 1
    35   22   23 ar
    36   22   38 1
    37   23   29 ar
    38   23   24 1
    39   24   25 2
    40   24   26 1
    41   26   27 2
    42   26   50 1
    43   27   28 1
    44   27   31 1
    45   28   29 1
    46   29   30 ar
    47   30   51 1
    48   31   36 ar
    49   31   32 ar
    50   32   33 ar
    51   32   52 1
    52   33   34 ar
    53   33   53 1
    54   34   35 ar
    55   34   37 1
    56   35   36 ar
    57   35   54 1
    58   36   55 1
    59   37   56 1
    60   38   57 1
    61   39   58 1
    62   40   59 1
    63   41   60 1
@<TRIPOS>MOLECULE
ZINC20913780
   52    54     0     0     0
SMALL
USER_CHARGES
methyl 4-[(E)-[[4-amino-5-[2-[(3-chloro-2-methyl-phenyl)amino]-2-oxo-ethyl]sulfanyl-1,2,4-triazol-3-yl]hydrazono]methyl]benzoate
@<TRIPOS>ATOM
      1 C1         -4.9336   16.8389    1.1853 C.3       1 <0>        -0.1155
      2 C2         -6.2789   17.0156    0.5294 C.ar      1 <0>        -0.1073
      3 C3         -6.9542   15.9141    0.0204 C.ar      1 <0>         0.1646
      4 C4         -8.1962   16.0801   -0.5781 C.ar      1 <0>        -0.1251
      5 C5         -8.7544   17.3403   -0.6704 C.ar      1 <0>        -0.0906
      6 C6         -8.0780   18.4363   -0.1681 C.ar      1 <0>        -0.1242
      7 C7         -6.8395   18.2748    0.4287 C.ar      1 <0>        -0.0179
      8 Cl1        -5.9935   19.6539    1.0581 Cl        1 <0>        -0.0622
      9 N1         -6.3868   14.6385    0.1156 N.am      1 <0>        -0.6740
     10 C8         -7.1776   13.5472    0.1101 C.2       1 <0>         0.5376
     11 O1         -8.3839   13.6722    0.1238 O.2       1 <0>        -0.5055
     12 C9         -6.5629   12.1714    0.0870 C.3       1 <0>        -0.1471
     13 S1         -7.8748   10.9244    0.0848 S.3       1 <0>         0.0803
     14 C10        -6.9012    9.4561    0.0569 C.2       1 <0>         0.1163
     15 N2         -5.5919    9.3902    0.0434 N.2       1 <0>        -0.2680
     16 N3         -5.2126    8.1625    0.0300 N.2       1 <0>        -0.2805
     17 C11        -6.2558    7.3702    0.0252 C.2       1 <0>         0.4453
     18 N4         -7.3702    8.1692    0.0458 N.pl3     1 <0>        -0.2405
     19 N5         -8.6753    7.7659    0.0532 N.3       1 <0>        -0.7682
     20 N6         -6.2367    5.9831    0.0085 N.pl3     1 <0>        -0.5563
     21 N7         -5.0140    5.2995   -0.0118 N.2       1 <0>        -0.1783
     22 C12        -4.9961    3.9996   -0.0274 C.2       1 <0>         0.0792
     23 C13        -3.7118    3.2816   -0.0488 C.ar      1 <0>        -0.0089
     24 C14        -3.6924    1.8821   -0.0656 C.ar      1 <0>        -0.1044
     25 C15        -2.5008    1.2163   -0.0849 C.ar      1 <0>        -0.0556
     26 C16        -1.2990    1.9327   -0.0879 C.ar      1 <0>        -0.1173
     27 C17        -1.3180    3.3315   -0.0654 C.ar      1 <0>        -0.0616
     28 C18        -2.5093    3.9980   -0.0518 C.ar      1 <0>        -0.0963
     29 C19        -0.0123    1.2134   -0.1088 C.2       1 <0>         0.5068
     30 O2          0.0043   -0.0016   -0.1234 O.2       1 <0>        -0.5037
     31 O3          1.1453    1.9033   -0.1174 O.3       1 <0>        -0.3538
     32 C20         2.3737    1.1296   -0.1442 C.3       1 <0>         0.0327
     33 H1         -4.6557   15.7747    1.1711 H         1 <0>         0.0638
     34 H2         -4.9842   17.1909    2.2262 H         1 <0>         0.0805
     35 H3         -4.1790   17.4222    0.6372 H         1 <0>         0.0798
     36 H4         -8.7251   15.2246   -0.9714 H         1 <0>         0.1511
     37 H5         -9.7203   17.4695   -1.1358 H         1 <0>         0.1363
     38 H6         -8.5165   19.4205   -0.2419 H         1 <0>         0.1348
     39 H7         -5.2954   14.5265    0.1949 H         1 <0>         0.4410
     40 H8         -5.9489   12.0593   -0.8188 H         1 <0>         0.1350
     41 H9         -5.9309   12.0372    0.9773 H         1 <0>         0.1338
     42 H10        -8.9196    6.6934    0.0426 H         1 <0>         0.4405
     43 H11        -9.4819    8.5136    0.0698 H         1 <0>         0.4526
     44 H12        -7.1817    5.4200    0.0112 H         1 <0>         0.4115
     45 H13        -5.9410    3.4365   -0.0246 H         1 <0>         0.1293
     46 H14        -4.6201    1.3290   -0.0629 H         1 <0>         0.1394
     47 H15        -2.4857    0.1365   -0.0983 H         1 <0>         0.1429
     48 H16        -0.3901    3.8840   -0.0632 H         1 <0>         0.1433
     49 H17        -2.5239    5.0778   -0.0384 H         1 <0>         0.1459
     50 H18         3.2366    1.8117   -0.1486 H         1 <0>         0.1064
     51 H19         2.3946    0.5060   -1.0501 H         1 <0>         0.0660
     52 H20         2.4205    0.4849    0.7459 H         1 <0>         0.0660
@<TRIPOS>BOND
     1    1    2 1
     2    1   33 1
     3    1   34 1
     4    1   35 1
     5    2    7 ar
     6    2    3 ar
     7    3    4 ar
     8    3    9 1
     9    4    5 ar
    10    4   36 1
    11    5    6 ar
    12    5   37 1
    13    6    7 ar
    14    6   38 1
    15    7    8 1
    16    9   10 am
    17    9   39 1
    18   10   11 2
    19   10   12 1
    20   12   13 1
    21   12   40 1
    22   12   41 1
    23   13   14 1
    24   14   18 1
    25   14   15 2
    26   15   16 1
    27   16   17 2
    28   17   18 1
    29   17   20 1
    30   18   19 1
    31   19   42 1
    32   19   43 1
    33   20   21 1
    34   20   44 1
    35   21   22 2
    36   22   23 1
    37   22   45 1
    38   23   28 ar
    39   23   24 ar
    40   24   25 ar
    41   24   46 1
    42   25   26 ar
    43   25   47 1
    44   26   27 ar
    45   26   29 1
    46   27   28 ar
    47   27   48 1
    48   28   49 1
    49   29   30 2
    50   29   31 1
    51   31   32 1
    52   32   50 1
    53   32   51 1
    54   32   52 1
@<TRIPOS>MOLECULE
ZINC33821845
   60    62     0     0     0
SMALL
USER_CHARGES
diallyl (5R,7S,8S,9S,10R)-7-hydroxy-7-methyl-9-(4-nitrophenyl)-3-thioxo-1,2,4-triazaspiro[4.5]decane-8,10-dicarboxylate
@<TRIPOS>ATOM
      1 C1         -0.1269    1.7074   -2.7333 C.3       1 <0>        -0.1555
      2 C2         -0.7194    2.0938   -1.3766 C.3       1 <0>         0.1658
      3 C3         -0.5349    3.5963   -1.1488 C.3       1 <0>        -0.1579
      4 C4         -1.1098    3.9790    0.2116 C.3       1 <0>         0.3030
      5 C5         -0.4161    3.1995    1.3247 C.3       1 <0>        -0.1203
      6 H1         -0.8443    3.4822    2.2977 H         1 <0>         0.1286
      7 C6         -0.6006    1.6983    1.0887 C.3       1 <0>        -0.0331
      8 H2         -1.6705    1.4439    1.1111 H         1 <0>         0.1275
      9 C7         -0.0037    1.3193   -0.2681 C.3       1 <0>        -0.1173
     10 H3         -0.1158    0.2380   -0.4361 H         1 <0>         0.1389
     11 C8          1.4639    1.6612   -0.2840 C.2       1 <0>         0.4500
     12 O1          2.1963    1.2199    0.5696 O.2       1 <0>        -0.4753
     13 O2          1.9575    2.4561   -1.2465 O.3       1 <0>        -0.3267
     14 C9          3.3966    2.6472   -1.2700 C.3       1 <0>         0.0917
     15 C10         3.7539    3.6416   -2.3445 C.2       1 <0>        -0.1638
     16 C11         4.6145    4.5967   -2.0931 C.2       1 <0>        -0.1627
     17 C12         0.1000    0.9285    2.1785 C.ar      1 <0>        -0.0347
     18 C13         0.6359   -0.3171    1.9099 C.ar      1 <0>        -0.0734
     19 C14         1.2823   -1.0213    2.9085 C.ar      1 <0>        -0.0507
     20 C15         1.3844   -0.4841    4.1780 C.ar      1 <0>        -0.0334
     21 C16         0.8443    0.7594    4.4479 C.ar      1 <0>        -0.0501
     22 C17         0.2017    1.4655    3.4482 C.ar      1 <0>        -0.0871
     23 N1          2.0725   -1.2402    5.2485 N.pl3     1 <0>         0.0270
     24 O3          2.1629   -0.7667    6.3670 O.2       1 <0>        -0.1598
     25 O4          2.5484   -2.3359    5.0107 O.3       1 <0>        -0.1588
     26 C18         1.0541    3.5304    1.3285 C.2       1 <0>         0.4629
     27 O5          1.5209    4.2181    0.4515 O.2       1 <0>        -0.4849
     28 O6          1.8451    3.0612    2.3062 O.3       1 <0>        -0.3205
     29 C19         3.2277    3.5047    2.3054 C.3       1 <0>         0.0966
     30 C20         3.9872    2.7834    3.3890 C.2       1 <0>        -0.1646
     31 C21         5.1712    2.2829    3.1368 C.2       1 <0>        -0.1599
     32 N2         -0.9750    5.4229    0.4368 N.pl3     1 <0>        -0.6889
     33 C22        -2.2227    5.9109    0.5750 C.2       1 <0>         0.5687
     34 S1         -2.5846    7.5602    0.8575 S.2       1 <0>        -0.5981
     35 N3         -3.1460    4.9458    0.4645 N.pl3     1 <0>        -0.5331
     36 N4         -2.5611    3.7307    0.2415 N.3       1 <0>        -0.4366
     37 O7         -2.1125    1.7760   -1.3569 O.3       1 <0>        -0.5654
     38 H4         -0.6416    2.2643   -3.5302 H         1 <0>         0.0728
     39 H5         -0.2585    0.6276   -2.8967 H         1 <0>         0.0647
     40 H6          0.9453    1.9525   -2.7483 H         1 <0>         0.0975
     41 H7          0.5369    3.8424   -1.1762 H         1 <0>         0.1403
     42 H8         -1.0595    4.1541   -1.9385 H         1 <0>         0.0953
     43 H9          3.7321    3.0263   -0.2934 H         1 <0>         0.0762
     44 H10         3.8906    1.6871   -1.4800 H         1 <0>         0.0778
     45 H11         3.2920    3.5654   -3.3399 H         1 <0>         0.1236
     46 H12         4.8753    5.3225   -2.8774 H         1 <0>         0.1129
     47 H13         5.0764    4.6729   -1.0977 H         1 <0>         0.0989
     48 H14         0.5526   -0.7386    0.9190 H         1 <0>         0.1395
     49 H15         1.7046   -1.9927    2.6976 H         1 <0>         0.1517
     50 H16         0.9241    1.1791    5.4398 H         1 <0>         0.1513
     51 H17        -0.2206    2.4369    3.6591 H         1 <0>         0.1369
     52 H18         3.6832    3.2834    1.3289 H         1 <0>         0.0797
     53 H19         3.2653    4.5884    2.4904 H         1 <0>         0.0798
     54 H20         3.5474    2.6772    4.3916 H         1 <0>         0.1199
     55 H21         5.7256    1.7564    3.9277 H         1 <0>         0.1123
     56 H22         5.6110    2.3891    2.1342 H         1 <0>         0.1009
     57 H23         0.0230    5.8847    0.4630 H         1 <0>         0.4879
     58 H24        -4.2412    5.0253    0.5298 H         1 <0>         0.4964
     59 H25        -2.8009    3.0749    0.9699 H         1 <0>         0.3424
     60 H26        -2.7114    1.9838   -0.4579 H         1 <0>         0.3932
@<TRIPOS>BOND
     1    1    2 1
     2    1   38 1
     3    1   39 1
     4    1   40 1
     5    2    9 1
     6    2    3 1
     7    2   37 1
     8    3    4 1
     9    3   41 1
    10    3   42 1
    11    4   36 1
    12    4    5 1
    13    4   32 1
    14    5    6 1
    15    5    7 1
    16    5   26 1
    17    7    8 1
    18    7    9 1
    19    7   17 1
    20    9   10 1
    21    9   11 1
    22   11   12 2
    23   11   13 1
    24   13   14 1
    25   14   15 1
    26   14   43 1
    27   14   44 1
    28   15   16 2
    29   15   45 1
    30   16   46 1
    31   16   47 1
    32   17   22 ar
    33   17   18 ar
    34   18   19 ar
    35   18   48 1
    36   19   20 ar
    37   19   49 1
    38   20   21 ar
    39   20   23 1
    40   21   22 ar
    41   21   50 1
    42   22   51 1
    43   23   24 2
    44   23   25 1
    45   26   27 2
    46   26   28 1
    47   28   29 1
    48   29   30 1
    49   29   52 1
    50   29   53 1
    51   30   31 2
    52   30   54 1
    53   31   55 1
    54   31   56 1
    55   32   33 1
    56   32   57 1
    57   33   34 2
    58   33   35 1
    59   35   36 1
    60   35   58 1
    61   36   59 1
    62   37   60 1
@<TRIPOS>MOLECULE
ZINC58997457
   44    46     0     0     0
SMALL
USER_CHARGES

@<TRIPOS>ATOM
      1 C1         -0.0168    1.3921    0.0978 C.ar      1 <0>        -0.0255
      2 C2          1.1531    2.1248    0.0796 C.ar      1 <0>        -0.1482
      3 C3          2.3788    1.4751    0.0616 C.ar      1 <0>         0.2045
      4 C4          2.4016    0.0100    0.0628 C.ar      1 <0>        -0.0658
      5 C5          1.1742   -0.6891    0.0823 C.ar      1 <0>        -0.0204
      6 C6          0.0016    0.0010    0.0989 C.ar      1 <0>        -0.0152
      7 N1         -1.2785   -0.7424    0.1187 N.pl3     1 <0>        -0.0192
      8 O1         -2.4206   -0.0867    0.1350 O.2       1 <0>        -0.1660
      9 O2         -1.2753   -2.0594    0.1200 O.3       1 <0>        -0.1709
     10 C7          3.6226   -0.6871    0.0445 C.2       1 <0>         0.0381
     11 N2          4.7715   -0.0163    0.0258 N.2       1 <0>        -0.1709
     12 N3          5.8916   -0.6559    0.0090 N.pl3     1 <0>        -0.4696
     13 C8          7.0561    0.0240   -0.0100 C.2       1 <0>         0.4694
     14 N4          7.1984    1.3468   -0.0078 N.2       1 <0>        -0.4590
     15 C9          8.5001    1.6083   -0.0308 C.2       1 <0>         0.1731
     16 N5          9.1654    0.4503   -0.0472 N.2       1 <0>        -0.3207
     17 N6          8.3155   -0.5186   -0.0291 N.pl3     1 <0>        -0.4190
     18 S1          9.2274    3.2132   -0.0389 S.3       1 <0>         0.1182
     19 C10        11.0114    2.8863   -0.0726 C.3       1 <0>        -0.1618
     20 C11        11.7614    4.1934   -0.0821 C.2       1 <0>         0.5402
     21 O3         11.1524    5.2422   -0.0675 O.2       1 <0>        -0.4939
     22 N7         13.1090    4.1969   -0.1068 N.am      1 <0>        -0.6638
     23 C12        13.8042    5.4081   -0.2098 C.ar      1 <0>         0.1434
     24 C13        13.3041    6.5509    0.3988 C.ar      1 <0>        -0.1328
     25 C14        13.9935    7.7459    0.2956 C.ar      1 <0>         0.1144
     26 C15        15.1815    7.8024   -0.4141 C.ar      1 <0>        -0.1371
     27 C16        15.6817    6.6658   -1.0217 C.ar      1 <0>        -0.1032
     28 C17        14.9999    5.4670   -0.9172 C.ar      1 <0>         0.0649
     29 F1         15.4923    4.3555   -1.5065 F         1 <0>        -0.1312
     30 F2         13.5072    8.8588    0.8873 F         1 <0>        -0.1278
     31 O4          3.5325    2.1818    0.0428 O.3       1 <0>        -0.4558
     32 H1         -0.9649    1.9090    0.1159 H         1 <0>         0.1605
     33 H2          1.1141    3.2041    0.0791 H         1 <0>         0.1605
     34 H3          1.1665   -1.7691    0.0832 H         1 <0>         0.1631
     35 H4          3.6279   -1.7671    0.0456 H         1 <0>         0.1302
     36 H5          5.8964   -1.6259    0.0100 H         1 <0>         0.3958
     37 H6         11.2924    2.3126    0.8105 H         1 <0>         0.1283
     38 H7         11.2598    2.3184   -0.9691 H         1 <0>         0.1285
     39 H8         13.5972    3.3605   -0.0531 H         1 <0>         0.4206
     40 H9         12.3776    6.5074    0.9520 H         1 <0>         0.1640
     41 H10        15.7180    8.7364   -0.4933 H         1 <0>         0.1501
     42 H11        16.6079    6.7131   -1.5750 H         1 <0>         0.1531
     43 H12         3.8815    2.3884    0.9206 H         1 <0>         0.4077
     44 H13         8.5290   -1.4649   -0.0309 H         1 <0>         0.4493
@<TRIPOS>BOND
     1    1    6 ar
     2    1    2 ar
     3    1   32 1
     4    2    3 ar
     5    2   33 1
     6    3    4 ar
     7    3   31 1
     8    4    5 ar
     9    4   10 1
    10    5    6 ar
    11    5   34 1
    12    6    7 1
    13    7    8 2
    14    7    9 1
    15   10   11 2
    16   10   35 1
    17   11   12 1
    18   12   13 1
    19   12   36 1
    20   13   17 1
    21   13   14 2
    22   14   15 1
    23   15   16 2
    24   15   18 1
    25   16   17 1
    26   17   44 1
    27   18   19 1
    28   19   20 1
    29   19   37 1
    30   19   38 1
    31   20   21 2
    32   20   22 am
    33   22   23 1
    34   22   39 1
    35   23   28 ar
    36   23   24 ar
    37   24   25 ar
    38   24   40 1
    39   25   26 ar
    40   25   30 1
    41   26   27 ar
    42   26   41 1
    43   27   28 ar
    44   27   42 1
    45   28   29 1
    46   31   43 1
@<TRIPOS>MOLECULE
ZINC59887856
   59    62     0     0     0
SMALL
USER_CHARGES

@<TRIPOS>ATOM
      1 C1         -0.0184    1.5028    0.0103 C.3       1 <0>        -0.0779
      2 C2          0.0021   -0.0041    0.0020 C.2       1 <0>         0.1255
      3 C3          0.0080   -0.8261   -1.1453 C.2       1 <0>        -0.2100
      4 C4          0.0278   -2.1339   -0.7118 C.2       1 <0>         0.1263
      5 N1          0.0336   -2.1114    0.6363 N.pl3     1 <0>        -0.3592
      6 N2          0.0230   -0.7760    1.0550 N.2       1 <0>        -0.2967
      7 C5          0.0535   -3.2848    1.5133 C.3       1 <0>         0.1315
      8 C6          1.5028   -3.6737    1.8121 C.3       1 <0>         0.0623
      9 O1          1.5222   -4.8182    2.6675 O.3       1 <0>        -0.5685
     10 C7          0.0405   -3.3629   -1.5838 C.3       1 <0>        -0.1004
     11 C8         -0.0045   -0.3695   -2.5490 C.2       1 <0>         0.1569
     12 N3         -0.0225    0.8994   -2.8183 N.2       1 <0>        -0.2150
     13 N4         -0.0344    1.3327   -4.1506 N.pl3     1 <0>        -0.5524
     14 C9         -0.0535    2.6847   -4.4375 C.2       1 <0>         0.5666
     15 N5         -0.0565    3.6632   -3.5563 N.2       1 <0>        -0.5176
     16 C10        -0.0762    4.8401   -4.1911 C.2       1 <0>         0.2148
     17 N6         -0.0860    4.6262   -5.4853 N.2       1 <0>        -0.3256
     18 N7         -0.0665    3.2345   -5.6707 N.pl3     1 <0>        -0.5052
     19 S1         -0.0881    6.4218   -3.4149 S.3       1 <0>         0.1248
     20 C11        -0.1145    7.5910   -4.8015 C.3       1 <0>        -0.1634
     21 C12        -0.1265    9.0010   -4.2696 C.2       1 <0>         0.5345
     22 O2         -0.1182    9.1977   -3.0728 O.2       1 <0>        -0.4753
     23 N8         -0.1466   10.0433   -5.1237 N.am      1 <0>        -0.6150
     24 C13        -0.1577   11.3419   -4.6338 C.2       1 <0>         0.0524
     25 C14        -0.1838   12.5240   -5.3553 C.2       1 <0>        -0.1354
     26 C15        -0.1911   13.7639   -4.5998 C.2       1 <0>        -0.0568
     27 C16        -0.1705   13.5941   -3.2594 C.2       1 <0>        -0.2214
     28 S2         -0.1498   11.8403   -3.0302 S.3       1 <0>         0.3200
     29 C17        -0.1697   14.6687   -2.2166 C.3       1 <0>        -0.0358
     30 C18         0.1845   15.9997   -2.8962 C.3       1 <0>        -0.1158
     31 C19        -0.6713   16.1559   -4.1565 C.3       1 <0>        -0.1198
     32 C20        -0.2200   15.1528   -5.2204 C.3       1 <0>        -0.0614
     33 C21        -0.2025   12.5233   -6.7872 C.1       1 <0>         0.2690
     34 N9         -0.2173   12.5227   -7.9231 N.1       1 <0>        -0.4259
     35 H1          1.0042    1.8801    0.0026 H         1 <0>         0.0797
     36 H2         -0.5455    1.8639   -0.8728 H         1 <0>         0.1016
     37 H3         -0.5286    1.8543    0.9071 H         1 <0>         0.0698
     38 H4         -0.4594   -3.0500    2.4460 H         1 <0>         0.1082
     39 H5         -0.4513   -4.1155    1.0202 H         1 <0>         0.1040
     40 H6          2.0156   -3.9084    0.8793 H         1 <0>         0.0519
     41 H7          2.0076   -2.8429    2.3052 H         1 <0>         0.0584
     42 H8          2.4108   -5.1212    2.8989 H         1 <0>         0.3912
     43 H9          1.0711   -3.6455   -1.7983 H         1 <0>         0.0878
     44 H10        -0.4603   -4.1809   -1.0661 H         1 <0>         0.0788
     45 H11        -0.4801   -3.1511   -2.5177 H         1 <0>         0.0895
     46 H12         0.0013   -1.0919   -3.3519 H         1 <0>         0.1181
     47 H13        -0.0292    0.6839   -4.8717 H         1 <0>         0.3971
     48 H14         0.7719    7.4430   -5.4184 H         1 <0>         0.1317
     49 H15        -1.0079    7.4218   -5.4025 H         1 <0>         0.1318
     50 H16        -0.1532    9.8860   -6.0809 H         1 <0>         0.4237
     51 H17        -1.1576   14.7399   -1.7616 H         1 <0>         0.0851
     52 H18         0.5718   14.4379   -1.4517 H         1 <0>         0.0840
     53 H19        -0.0185   16.8240   -2.2126 H         1 <0>         0.0751
     54 H20         1.2398   16.0008   -3.1691 H         1 <0>         0.0692
     55 H21        -1.7172   15.9748   -3.9086 H         1 <0>         0.0685
     56 H22        -0.5627   17.1687   -4.5445 H         1 <0>         0.0711
     57 H23         0.7772   15.4169   -5.5723 H         1 <0>         0.0805
     58 H24        -0.9203   15.1656   -6.0556 H         1 <0>         0.0746
     59 H25        -0.0648    2.7614   -6.5174 H         1 <0>         0.4386
@<TRIPOS>BOND
     1    1    2 1
     2    1   35 1
     3    1   36 1
     4    1   37 1
     5    2    6 2
     6    2    3 1
     7    3    4 2
     8    3   11 1
     9    4    5 1
    10    4   10 1
    11    5    6 1
    12    5    7 1
    13    7    8 1
    14    7   38 1
    15    7   39 1
    16    8    9 1
    17    8   40 1
    18    8   41 1
    19    9   42 1
    20   10   43 1
    21   10   44 1
    22   10   45 1
    23   11   12 2
    24   11   46 1
    25   12   13 1
    26   13   14 1
    27   13   47 1
    28   14   18 1
    29   14   15 2
    30   15   16 1
    31   16   17 2
    32   16   19 1
    33   17   18 1
    34   18   59 1
    35   19   20 1
    36   20   21 1
    37   20   48 1
    38   20   49 1
    39   21   22 2
    40   21   23 am
    41   23   24 1
    42   23   50 1
    43   24   28 1
    44   24   25 2
    45   25   26 1
    46   25   33 1
    47   26   32 1
    48   26   27 2
    49   27   28 1
    50   27   29 1
    51   29   30 1
    52   29   51 1
    53   29   52 1
    54   30   31 1
    55   30   53 1
    56   30   54 1
    57   31   32 1
    58   31   55 1
    59   31   56 1
    60   32   57 1
    61   32   58 1
    62   33   34 3
@<TRIPOS>MOLECULE
ZINC01261489
   38    41     0     0     0
SMALL
USER_CHARGES
4-(1-naphthylmethyleneamino)-5-phenyl-2H-1,2,4-triazole-3-thione
@<TRIPOS>ATOM
      1 C1         -3.0705    6.2664   -5.1691 C.ar      1 <0>        -0.0874
      2 C2         -4.3735    6.6425   -4.8957 C.ar      1 <0>        -0.1182
      3 C3         -4.8012    6.7596   -3.5892 C.ar      1 <0>        -0.0645
      4 C4         -3.9166    6.4977   -2.5427 C.ar      1 <0>        -0.0479
      5 C5         -2.6024    6.1239   -2.8249 C.ar      1 <0>        -0.0910
      6 C6         -2.1886    6.0049   -4.1358 C.ar      1 <0>        -0.1147
      7 C7         -4.3685    6.6217   -1.1393 C.2       1 <0>         0.3306
      8 N1         -5.4556    7.2208   -0.7390 N.2       1 <0>        -0.2627
      9 N2         -5.5190    7.1176    0.6572 N.pl3     1 <0>        -0.4671
     10 H1         -6.2194    7.4722    1.2271 H         1 <0>         0.4725
     11 C8         -4.4319    6.4305    1.0638 C.2       1 <0>         0.4710
     12 S1         -4.0383    6.0262    2.6802 S.2       1 <0>        -0.5568
     13 N3         -3.7095    6.1227   -0.0317 N.pl3     1 <0>        -0.3685
     14 N4         -2.5013    5.4136   -0.0457 N.2       1 <0>        -0.2363
     15 C9         -1.3724    6.0512    0.0450 C.2       1 <0>         0.2167
     16 C10        -0.1041    5.3068    0.0303 C.ar      1 <0>        -0.0919
     17 C11         1.1128    5.9783    0.0142 C.ar      1 <0>        -0.0379
     18 C12         2.3080    5.2728   -0.0006 C.ar      1 <0>        -0.1394
     19 C13         2.3389    3.9119   -0.0000 C.ar      1 <0>        -0.0537
     20 C14         1.1474    3.1678    0.0163 C.ar      1 <0>        -0.0657
     21 C15        -0.0965    3.8451    0.0322 C.ar      1 <0>        -0.0118
     22 C16        -1.2860    3.1072    0.0480 C.ar      1 <0>        -0.1158
     23 C17        -1.2339    1.7451    0.0422 C.ar      1 <0>        -0.1010
     24 C18        -0.0123    1.0758    0.0324 C.ar      1 <0>        -0.1146
     25 C19         1.1633    1.7622    0.0168 C.ar      1 <0>        -0.1023
     26 H2         -2.7406    6.1762   -6.1935 H         1 <0>         0.1336
     27 H3         -5.0573    6.8453   -5.7068 H         1 <0>         0.1370
     28 H4         -5.8188    7.0529   -3.3771 H         1 <0>         0.1386
     29 H5         -1.9117    5.9238   -2.0191 H         1 <0>         0.1258
     30 H6         -1.1729    5.7110   -4.3556 H         1 <0>         0.1346
     31 H7         -1.3657    7.1278    0.1313 H         1 <0>         0.1383
     32 H8          1.1285    7.0582    0.0128 H         1 <0>         0.1365
     33 H9          3.2397    5.8189   -0.0134 H         1 <0>         0.1346
     34 H10         3.2892    3.3988   -0.0118 H         1 <0>         0.1340
     35 H11        -2.2396    3.6142    0.0597 H         1 <0>         0.1629
     36 H12        -2.1523    1.1769    0.0499 H         1 <0>         0.1255
     37 H13         0.0024   -0.0041    0.0327 H         1 <0>         0.1259
     38 H14         2.1029    1.2298    0.0052 H         1 <0>         0.1309
@<TRIPOS>BOND
     1    1    6 ar
     2    1    2 ar
     3    1   26 1
     4    2    3 ar
     5    2   27 1
     6    3    4 ar
     7    3   28 1
     8    4    5 ar
     9    4    7 1
    10    5    6 ar
    11    5   29 1
    12    6   30 1
    13    7   13 1
    14    7    8 2
    15    8    9 1
    16    9   10 1
    17    9   11 1
    18   11   12 2
    19   11   13 1
    20   13   14 1
    21   14   15 2
    22   15   16 1
    23   15   31 1
    24   16   21 ar
    25   16   17 ar
    26   17   18 ar
    27   17   32 1
    28   18   19 ar
    29   18   33 1
    30   19   20 ar
    31   19   34 1
    32   20   25 ar
    33   20   21 ar
    34   21   22 ar
    35   22   23 ar
    36   22   35 1
    37   23   24 ar
    38   23   36 1
    39   24   25 ar
    40   24   37 1
    41   25   38 1
@<TRIPOS>MOLECULE
ZINC37299441
   34    36     0     0     0
SMALL
USER_CHARGES

@<TRIPOS>ATOM
      1 C1         -0.0166    1.3715    0.0096 C.ar      1 <0>        -0.1047
      2 C2          1.1809    2.0631    0.0019 C.ar      1 <0>        -0.1146
      3 C3          2.3653    1.3661   -0.0030 C.ar      1 <0>        -0.1122
      4 C4          2.3920   -0.0336   -0.0074 C.ar      1 <0>        -0.0950
      5 C5          1.2041   -0.7144   -0.0169 C.ar      1 <0>        -0.0638
      6 C6          0.0021   -0.0041    0.0020 C.ar      1 <0>        -0.1147
      7 C7          1.0493   -2.2146   -0.0725 C.3       1 <0>        -0.0529
      8 S1          2.5937   -3.0250    0.4258 S.3       1 <0>        -0.2271
      9 C8          3.8312   -2.0583   -0.4970 C.3       1 <0>        -0.1055
     10 C9          3.7719   -0.6265    0.0141 C.3       1 <0>         0.1994
     11 H1          4.1435   -0.6068    1.0387 H         1 <0>         0.1040
     12 N1          4.6506    0.2030   -0.8142 N.pl3     1 <0>        -0.7292
     13 C10         6.0274    0.2173   -0.5751 C.ar      1 <0>         0.2247
     14 C11         6.5648   -0.5587    0.4441 C.ar      1 <0>        -0.1416
     15 C12         7.9256   -0.5426    0.6782 C.ar      1 <0>        -0.0577
     16 C13         8.7539    0.2459   -0.1014 C.ar      1 <0>        -0.0434
     17 C14         8.2213    1.0202   -1.1169 C.ar      1 <0>         0.0070
     18 C15         6.8616    1.0032   -1.3595 C.ar      1 <0>        -0.1248
     19 N2          9.1101    1.8625   -1.9482 N.pl3     1 <0>         0.0293
     20 O1          8.6454    2.5393   -2.8357 O.2       1 <0>        -0.1612
     21 O2         10.3010    1.8737   -1.7398 O.3       1 <0>        -0.1286
     22 Cl1        10.4642    0.2638    0.1957 Cl        1 <0>        -0.0126
     23 H2         -0.9555    1.9050    0.0259 H         1 <0>         0.1302
     24 H3          1.1853    3.1431   -0.0007 H         1 <0>         0.1287
     25 H4          3.2977    1.9111   -0.0039 H         1 <0>         0.1264
     26 H5         -0.9322   -0.5457    0.0109 H         1 <0>         0.1279
     27 H6          0.2481   -2.5199    0.6005 H         1 <0>         0.1211
     28 H7          0.7965   -2.5139   -1.0897 H         1 <0>         0.1026
     29 H8          4.8254   -2.4711   -0.3260 H         1 <0>         0.1167
     30 H9          3.5988   -2.0807   -1.5618 H         1 <0>         0.0954
     31 H10         4.2768    0.7422   -1.5286 H         1 <0>         0.4094
     32 H11         5.9189   -1.1739    1.0530 H         1 <0>         0.1498
     33 H12         8.3439   -1.1454    1.4706 H         1 <0>         0.1578
     34 H13         6.4470    1.6038   -2.1556 H         1 <0>         0.1590
@<TRIPOS>BOND
     1    1    6 ar
     2    1    2 ar
     3    1   23 1
     4    2    3 ar
     5    2   24 1
     6    3    4 ar
     7    3   25 1
     8    4   10 1
     9    4    5 ar
    10    5    6 ar
    11    5    7 1
    12    6   26 1
    13    7    8 1
    14    7   27 1
    15    7   28 1
    16    8    9 1
    17    9   10 1
    18    9   29 1
    19    9   30 1
    20   10   11 1
    21   10   12 1
    22   12   13 1
    23   12   31 1
    24   13   18 ar
    25   13   14 ar
    26   14   15 ar
    27   14   32 1
    28   15   16 ar
    29   15   33 1
    30   16   17 ar
    31   16   22 1
    32   17   18 ar
    33   17   19 1
    34   18   34 1
    35   19   20 2
    36   19   21 1
@<TRIPOS>MOLECULE
ZINC43579915
   34    35     0     0     0
SMALL
USER_CHARGES

@<TRIPOS>ATOM
      1 C1         -0.0187    1.5258    0.0104 C.3       1 <0>        -0.1396
      2 C2          0.0021   -0.0041    0.0020 C.3       1 <0>         0.0012
      3 C3          0.7421   -0.5109    1.2415 C.3       1 <0>        -0.1399
      4 C4         -1.4333   -0.5336    0.0129 C.3       1 <0>        -0.1444
      5 C5          0.7074   -0.4901   -1.2379 C.2       1 <0>         0.1371
      6 C6          2.0921   -0.4720   -1.4560 C.2       1 <0>        -0.3185
      7 C7          2.3306   -0.9926   -2.6874 C.2       1 <0>         0.3117
      8 O1          1.1468   -1.3272   -3.2282 O.3       1 <0>        -0.0663
      9 N1          0.1352   -1.0053   -2.2910 N.2       1 <0>        -0.3080
     10 N2          3.5734   -1.1501   -3.2810 N.am      1 <0>        -0.6292
     11 C8          3.6681   -1.6838   -4.5149 C.2       1 <0>         0.5562
     12 O2          2.6637   -2.0270   -5.1074 O.2       1 <0>        -0.4689
     13 C9          4.9927   -1.8517   -5.1476 C.ar      1 <0>        -0.0943
     14 C10         6.1487   -1.4636   -4.4670 C.ar      1 <0>        -0.0898
     15 C11         7.3827   -1.6227   -5.0614 C.ar      1 <0>        -0.0655
     16 C12         7.4785   -2.1662   -6.3312 C.ar      1 <0>        -0.1057
     17 C13         6.3351   -2.5539   -7.0132 C.ar      1 <0>         0.1275
     18 C14         5.0938   -2.4041   -6.4255 C.ar      1 <0>        -0.0823
     19 F1          6.4355   -3.0836   -8.2520 F         1 <0>        -0.1131
     20 Br1         9.1749   -2.3801   -7.1387 Br        1 <0>        -0.0093
     21 H1          1.0039    1.9031    0.0027 H         1 <0>         0.0627
     22 H2         -0.5459    1.8868   -0.8726 H         1 <0>         0.0603
     23 H3         -0.5289    1.8773    0.9072 H         1 <0>         0.0716
     24 H4          0.2319   -0.1594    2.1383 H         1 <0>         0.0705
     25 H5          0.7568   -1.6008    1.2356 H         1 <0>         0.0606
     26 H6          1.7647   -0.1336    1.2338 H         1 <0>         0.0630
     27 H7         -1.9605   -0.1726   -0.8702 H         1 <0>         0.0642
     28 H8         -1.4185   -1.6235    0.0069 H         1 <0>         0.0606
     29 H9         -1.9435   -0.1821    0.9097 H         1 <0>         0.0673
     30 H10         2.8386   -0.1075   -0.7658 H         1 <0>         0.1627
     31 H11         4.3748   -0.8762   -2.8082 H         1 <0>         0.4335
     32 H12         6.0763   -1.0391   -3.4765 H         1 <0>         0.1447
     33 H13         8.2768   -1.3223   -4.5353 H         1 <0>         0.1558
     34 H14         4.2037   -2.7102   -6.9550 H         1 <0>         0.1633
@<TRIPOS>BOND
     1    1    2 1
     2    1   21 1
     3    1   22 1
     4    1   23 1
     5    2    3 1
     6    2    4 1
     7    2    5 1
     8    3   24 1
     9    3   25 1
    10    3   26 1
    11    4   27 1
    12    4   28 1
    13    4   29 1
    14    5    9 2
    15    5    6 1
    16    6    7 2
    17    6   30 1
    18    7    8 1
    19    7   10 1
    20    8    9 1
    21   10   11 am
    22   10   31 1
    23   11   12 2
    24   11   13 1
    25   13   18 ar
    26   13   14 ar
    27   14   15 ar
    28   14   32 1
    29   15   16 ar
    30   15   33 1
    31   16   17 ar
    32   16   20 1
    33   17   18 ar
    34   17   19 1
    35   18   34 1
@<TRIPOS>MOLECULE
ZINC36635493
   46    48     0     0     0
SMALL
USER_CHARGES

@<TRIPOS>ATOM
      1 C1         -0.0184    1.5028    0.0103 C.3       1 <0>        -0.1180
      2 C2          0.0021   -0.0041    0.0020 C.ar      1 <0>        -0.0443
      3 C3          0.0057   -0.6882   -1.2000 C.ar      1 <0>        -0.1648
      4 C4          0.0240   -2.0707   -1.2121 C.ar      1 <0>        -0.0754
      5 C5          0.0391   -2.7732   -0.0230 C.ar      1 <0>        -0.1813
      6 C6          0.0360   -2.0893    1.1859 C.ar      1 <0>         0.2096
      7 C7          0.0228   -0.7000    1.1944 C.ar      1 <0>        -0.1518
      8 C8          0.0251    0.0464    2.5036 C.3       1 <0>        -0.1088
      9 N1          0.0513   -2.7965    2.3902 N.pl3     1 <0>        -0.7279
     10 C9          0.0706   -4.2614    2.3793 C.3       1 <0>         0.1272
     11 H1          0.6466   -4.6299    1.5305 H         1 <0>         0.1345
     12 C10         0.6450   -4.8065    3.7028 C.3       1 <0>        -0.1620
     13 C11        -0.4997   -5.6082    4.2827 C.2       1 <0>         0.5269
     14 O1         -0.4722   -6.2131    5.3329 O.2       1 <0>        -0.4631
     15 N2         -1.5479   -5.5434    3.4524 N.am      1 <0>        -0.5248
     16 C12        -1.3383   -4.8123    2.3464 C.2       1 <0>         0.5065
     17 O2         -2.1463   -4.6217    1.4631 O.2       1 <0>        -0.4458
     18 C13        -2.7648   -6.1881    3.7150 C.ar      1 <0>         0.1001
     19 C14        -2.9717   -7.4889    3.2763 C.ar      1 <0>        -0.0604
     20 C15        -4.1717   -8.1214    3.5365 C.ar      1 <0>        -0.1189
     21 C16        -5.1665   -7.4603    4.2333 C.ar      1 <0>        -0.0949
     22 C17        -4.9633   -6.1646    4.6715 C.ar      1 <0>        -0.1192
     23 C18        -3.7633   -5.5290    4.4193 C.ar      1 <0>        -0.0600
     24 C19        -3.5403   -4.1191    4.9027 C.3       1 <0>        -0.1149
     25 C20        -1.8883   -8.2099    2.5164 C.3       1 <0>        -0.1164
     26 H2          1.0042    1.8801    0.0026 H         1 <0>         0.0717
     27 H3         -0.5455    1.8639   -0.8728 H         1 <0>         0.0673
     28 H4         -0.5286    1.8543    0.9071 H         1 <0>         0.0678
     29 H5         -0.0061   -0.1414   -2.1312 H         1 <0>         0.1193
     30 H6          0.0260   -2.6019   -2.1525 H         1 <0>         0.1217
     31 H7          0.0530   -3.8531   -0.0331 H         1 <0>         0.1183
     32 H8         -1.0019    0.2123    2.8290 H         1 <0>         0.0658
     33 H9          0.5541   -0.5398    3.2551 H         1 <0>         0.0572
     34 H10         0.5247    1.0064    2.3736 H         1 <0>         0.0716
     35 H11         0.0491   -2.3178    3.2339 H         1 <0>         0.4059
     36 H12         1.5051   -5.4485    3.5121 H         1 <0>         0.1366
     37 H13         0.9164   -3.9878    4.3693 H         1 <0>         0.1295
     38 H14        -4.3334   -9.1332    3.1951 H         1 <0>         0.1319
     39 H15        -6.1041   -7.9568    4.4353 H         1 <0>         0.1312
     40 H16        -5.7421   -5.6508    5.2155 H         1 <0>         0.1314
     41 H17        -3.8692   -3.4163    4.1372 H         1 <0>         0.0753
     42 H18        -4.1107   -3.9539    5.8167 H         1 <0>         0.0760
     43 H19        -2.4798   -3.9674    5.1038 H         1 <0>         0.0577
     44 H20        -1.2458   -8.7426    3.2174 H         1 <0>         0.0769
     45 H21        -2.3408   -8.9213    1.8256 H         1 <0>         0.0765
     46 H22        -1.2947   -7.4872    1.9566 H         1 <0>         0.0586
@<TRIPOS>BOND
     1    1    2 1
     2    1   26 1
     3    1   27 1
     4    1   28 1
     5    2    7 ar
     6    2    3 ar
     7    3    4 ar
     8    3   29 1
     9    4    5 ar
    10    4   30 1
    11    5    6 ar
    12    5   31 1
    13    6    7 ar
    14    6    9 1
    15    7    8 1
    16    8   32 1
    17    8   33 1
    18    8   34 1
    19    9   10 1
    20    9   35 1
    21   10   11 1
    22   10   16 1
    23   10   12 1
    24   12   13 1
    25   12   36 1
    26   12   37 1
    27   13   14 2
    28   13   15 am
    29   15   16 am
    30   15   18 1
    31   16   17 2
    32   18   23 ar
    33   18   19 ar
    34   19   20 ar
    35   19   25 1
    36   20   21 ar
    37   20   38 1
    38   21   22 ar
    39   21   39 1
    40   22   23 ar
    41   22   40 1
    42   23   24 1
    43   24   41 1
    44   24   42 1
    45   24   43 1
    46   25   44 1
    47   25   45 1
    48   25   46 1
@<TRIPOS>MOLECULE
ZINC66349142
   42    44     0     0     0
SMALL
USER_CHARGES

@<TRIPOS>ATOM
      1 C1         -0.0276    1.5266    0.0185 C.3       1 <0>        -0.1361
      2 C2         -0.0046   -0.0031    0.0074 C.3       1 <0>         0.1276
      3 H1          0.4221   -0.3570   -0.9311 H         1 <0>         0.0796
      4 C3         -1.4314   -0.5421    0.1615 C.3       1 <0>         0.0492
      5 O1         -1.3826   -1.9601    0.3366 O.3       1 <0>        -0.3765
      6 C4         -0.6940   -2.3807    1.5167 C.3       1 <0>         0.0479
      7 C5          0.7706   -1.9360    1.4319 C.3       1 <0>         0.0755
      8 N1          0.8024   -0.4949    1.1353 N.am      1 <0>        -0.6296
      9 C6          1.5478    0.3497    1.8753 C.2       1 <0>         0.7139
     10 O2          1.4942    1.5469    1.6701 O.2       1 <0>        -0.5700
     11 N2          2.3525   -0.1329    2.8428 N.am      1 <0>        -0.7405
     12 C7          3.0769    0.7894    3.7207 C.3       1 <0>         0.2625
     13 H2          3.3702    1.6741    3.1556 H         1 <0>         0.1087
     14 C8          4.3076    0.1072    4.2602 C.ar      1 <0>        -0.0820
     15 C9          4.2516   -1.2214    4.6378 C.ar      1 <0>        -0.0997
     16 C10         5.3800   -1.8477    5.1327 C.ar      1 <0>        -0.1046
     17 C11         6.5657   -1.1445    5.2501 C.ar      1 <0>        -0.0318
     18 C12         6.6212    0.1852    4.8720 C.ar      1 <0>        -0.1037
     19 C13         5.4936    0.8087    4.3720 C.ar      1 <0>        -0.0891
     20 Cl1         7.9833   -1.9303    5.8721 Cl        1 <0>        -0.0650
     21 C14         2.1860    1.1973    4.8657 C.2       1 <0>        -0.1251
     22 C15         2.1800    2.5031    5.3192 C.2       1 <0>        -0.1430
     23 C16         1.3669    2.8368    6.3510 C.2       1 <0>        -0.1680
     24 S1          0.5730    1.2796    6.7142 S.3       1 <0>         0.0388
     25 C17         1.3744    0.2905    5.4626 C.2       1 <0>        -0.1615
     26 H3          0.9752    1.9065   -0.1771 H         1 <0>         0.0793
     27 H4         -0.7090    1.8854   -0.7529 H         1 <0>         0.0483
     28 H5         -0.3653    1.8779    0.9935 H         1 <0>         0.0712
     29 H6         -1.9017   -0.0838    1.0316 H         1 <0>         0.0579
     30 H7         -2.0086   -0.3052   -0.7323 H         1 <0>         0.1084
     31 H8         -1.1615   -1.9291    2.3916 H         1 <0>         0.0568
     32 H9         -0.7406   -3.4667    1.5978 H         1 <0>         0.1082
     33 H10         1.2676   -2.1261    2.3832 H         1 <0>         0.0835
     34 H11         1.2756   -2.4850    0.6372 H         1 <0>         0.0806
     35 H12         2.4520   -1.0909    2.9579 H         1 <0>         0.3931
     36 H13         3.3259   -1.7701    4.5465 H         1 <0>         0.1259
     37 H14         5.3360   -2.8856    5.4280 H         1 <0>         0.1365
     38 H15         7.5464    0.7346    4.9637 H         1 <0>         0.1378
     39 H16         5.5379    1.8454    4.0723 H         1 <0>         0.1361
     40 H17         2.8140    3.2462    4.8584 H         1 <0>         0.1354
     41 H18         1.2341    3.7959    6.8295 H         1 <0>         0.1869
     42 H19         1.2466   -0.7585    5.2396 H         1 <0>         0.1766
@<TRIPOS>BOND
     1    1    2 1
     2    1   26 1
     3    1   27 1
     4    1   28 1
     5    2    3 1
     6    2    8 1
     7    2    4 1
     8    4    5 1
     9    4   29 1
    10    4   30 1
    11    5    6 1
    12    6    7 1
    13    6   31 1
    14    6   32 1
    15    7    8 1
    16    7   33 1
    17    7   34 1
    18    8    9 am
    19    9   10 2
    20    9   11 am
    21   11   12 1
    22   11   35 1
    23   12   13 1
    24   12   14 1
    25   12   21 1
    26   14   19 ar
    27   14   15 ar
    28   15   16 ar
    29   15   36 1
    30   16   17 ar
    31   16   37 1
    32   17   18 ar
    33   17   20 1
    34   18   19 ar
    35   18   38 1
    36   19   39 1
    37   21   25 2
    38   21   22 1
    39   22   23 2
    40   22   40 1
    41   23   24 1
    42   23   41 1
    43   24   25 1
    44   25   42 1
@<TRIPOS>MOLECULE
ZINC04140470
   48    51     0     0     0
SMALL
USER_CHARGES
(4-methoxy-3-nitro-phenyl)-dimethyl-BLAH
@<TRIPOS>ATOM
      1 C1          2.9048   -0.8712   -0.0496 C.3       1 <0>        -0.1167
      2 C2          1.7256    0.0642    0.0237 C.ar      1 <0>        -0.0765
      3 C3          0.4476   -0.4512    0.0982 C.ar      1 <0>        -0.1254
      4 C4         -0.6397    0.4006    0.1650 C.ar      1 <0>        -0.1088
      5 C5         -0.4419    1.7655    0.1565 C.ar      1 <0>        -0.0815
      6 C6          0.8481    2.2888    0.0814 C.ar      1 <0>         0.1020
      7 C7          1.9348    1.4368    0.0160 C.ar      1 <0>        -0.0971
      8 C8          3.3567    1.9262   -0.0618 C.3       1 <0>        -0.0163
      9 H1          3.9453    1.5522    0.7759 H         1 <0>         0.0894
     10 C9          3.9337    1.4862   -1.3983 C.2       1 <0>        -0.1559
     11 C10         3.8480    2.4523   -2.2772 C.2       1 <0>        -0.1613
     12 C11         3.2005    3.6774   -1.6596 C.3       1 <0>        -0.0995
     13 C12         3.4179    3.4651   -0.1415 C.3       1 <0>        -0.1235
     14 H2          4.3822    3.8567    0.1824 H         1 <0>         0.0999
     15 C13         2.2763    4.0865    0.6475 C.3       1 <0>         0.1423
     16 H3          2.3591    5.1727    0.6093 H         1 <0>         0.1105
     17 N1          0.9926    3.6764    0.0754 N.pl3     1 <0>        -0.6255
     18 C14         2.3533    3.6309    2.0819 C.ar      1 <0>        -0.1148
     19 C15         3.5778    3.3130    2.6404 C.ar      1 <0>        -0.0237
     20 C16         3.6510    2.8952    3.9549 C.ar      1 <0>        -0.2146
     21 C17         2.4946    2.7946    4.7151 C.ar      1 <0>         0.1948
     22 C18         1.2676    3.1141    4.1526 C.ar      1 <0>        -0.0819
     23 C19         1.2003    3.5369    2.8389 C.ar      1 <0>         0.0097
     24 N2          0.0322    3.0083    4.9608 N.pl3     1 <0>         0.0369
     25 O1         -1.0449    3.2890    4.4663 O.2       1 <0>        -0.1743
     26 O2          0.0927    2.6406    6.1204 O.3       1 <0>        -0.1419
     27 O3          2.5640    2.3833    6.0086 O.3       1 <0>        -0.2818
     28 C20         3.8607    2.0707    6.5212 C.3       1 <0>         0.0186
     29 C21        -1.6260    2.6954    0.2223 C.3       1 <0>        -0.1076
     30 H4          3.1280   -1.0935   -1.0931 H         1 <0>         0.0710
     31 H5          3.7713   -0.4006    0.4150 H         1 <0>         0.0660
     32 H6          2.6681   -1.7961    0.4763 H         1 <0>         0.0638
     33 H7          0.2965   -1.5205    0.1048 H         1 <0>         0.1205
     34 H8         -1.6402   -0.0016    0.2239 H         1 <0>         0.1246
     35 H9          4.3557    0.5117   -1.5947 H         1 <0>         0.1289
     36 H10         4.1908    2.3866   -3.2992 H         1 <0>         0.1279
     37 H11         2.1367    3.7103   -1.8950 H         1 <0>         0.0758
     38 H12         3.6984    4.5867   -1.9961 H         1 <0>         0.0782
     39 H13         0.8762    4.0480   -0.8554 H         1 <0>         0.3612
     40 H14         4.4775    3.3911    2.0482 H         1 <0>         0.1443
     41 H15         4.6075    2.6473    4.3908 H         1 <0>         0.1514
     42 H16         0.2458    3.7904    2.4019 H         1 <0>         0.1672
     43 H17         4.2990    1.2641    5.9335 H         1 <0>         0.0621
     44 H18         4.4981    2.9528    6.4598 H         1 <0>         0.0628
     45 H19         3.7741    1.7567    7.5615 H         1 <0>         0.1128
     46 H20        -1.8557    2.9179    1.2643 H         1 <0>         0.0748
     47 H21        -1.3909    3.6208   -0.3036 H         1 <0>         0.0707
     48 H22        -2.4877    2.2201   -0.2463 H         1 <0>         0.0606
@<TRIPOS>BOND
     1    1    2 1
     2    1   30 1
     3    1   31 1
     4    1   32 1
     5    2    7 ar
     6    2    3 ar
     7    3    4 ar
     8    3   33 1
     9    4    5 ar
    10    4   34 1
    11    5    6 ar
    12    5   29 1
    13    6   17 1
    14    6    7 ar
    15    7    8 1
    16    8    9 1
    17    8   13 1
    18    8   10 1
    19   10   11 2
    20   10   35 1
    21   11   12 1
    22   11   36 1
    23   12   13 1
    24   12   37 1
    25   12   38 1
    26   13   14 1
    27   13   15 1
    28   15   16 1
    29   15   17 1
    30   15   18 1
    31   17   39 1
    32   18   23 ar
    33   18   19 ar
    34   19   20 ar
    35   19   40 1
    36   20   21 ar
    37   20   41 1
    38   21   22 ar
    39   21   27 1
    40   22   23 ar
    41   22   24 1
    42   23   42 1
    43   24   25 2
    44   24   26 1
    45   27   28 1
    46   28   43 1
    47   28   44 1
    48   28   45 1
    49   29   46 1
    50   29   47 1
    51   29   48 1
@<TRIPOS>MOLECULE
ZINC09668944
   45    48     0     0     0
SMALL
USER_CHARGES
2-[4-(4-fluorophenyl)piperazin-1-yl]-6-phenyl-3H-pyrimidin-4-one
@<TRIPOS>ATOM
      1 C1          4.7518   11.4581    2.8040 C.ar      1 <0>        -0.0983
      2 C2          4.7426   10.0752    2.7669 C.ar      1 <0>        -0.1294
      3 C3          3.9818    9.4126    1.8254 C.ar      1 <0>        -0.0700
      4 C4          3.2210   10.1398    0.9106 C.ar      1 <0>        -0.0649
      5 C5          3.2386   11.5337    0.9496 C.ar      1 <0>        -0.0871
      6 C6          3.9988   12.1850    1.8993 C.ar      1 <0>        -0.1255
      7 C7          2.4019    9.4343   -0.1029 C.2       1 <0>         0.2532
      8 C8          1.6452   10.1573   -1.0128 C.2       1 <0>        -0.3143
      9 C9          0.8810    9.4578   -1.9591 C.2       1 <0>         0.5383
     10 O1          0.2020   10.0590   -2.7758 O.2       1 <0>        -0.5361
     11 N1          0.9095    8.1087   -1.9500 N.am      1 <0>        -0.6366
     12 H1          0.3872    7.6093   -2.5971 H         1 <0>         0.4159
     13 C10         1.6697    7.4472   -1.0354 C.2       1 <0>         0.5774
     14 N2          2.3853    8.0949   -0.1409 N.2       1 <0>        -0.5635
     15 N3          1.6859    6.0777   -1.0424 N.pl3     1 <0>        -0.4771
     16 C11         2.4659    5.5544    0.0878 C.3       1 <0>         0.0760
     17 C12         2.5261    4.0276   -0.0008 C.3       1 <0>         0.0444
     18 N4          1.1605    3.4847    0.0092 N.pl3     1 <0>        -0.4890
     19 C13         0.3805    4.0080   -1.1210 C.3       1 <0>         0.0586
     20 C14         0.3203    5.5348   -1.0324 C.3       1 <0>         0.0521
     21 C15         1.1771    2.0866    0.0020 C.ar      1 <0>         0.0983
     22 C16        -0.0167    1.3770    0.0096 C.ar      1 <0>        -0.1091
     23 C17         0.0021   -0.0041    0.0020 C.ar      1 <0>        -0.1273
     24 C18         1.2099   -0.6810   -0.0132 C.ar      1 <0>         0.0754
     25 C19         2.4013    0.0245   -0.0207 C.ar      1 <0>        -0.1255
     26 C20         2.3873    1.4056   -0.0127 C.ar      1 <0>        -0.1390
     27 F1          1.2258   -2.0319   -0.0201 F         1 <0>        -0.1400
     28 H2          5.3491   11.9723    3.5424 H         1 <0>         0.1263
     29 H3          5.3322    9.5131    3.4759 H         1 <0>         0.1280
     30 H4          3.9754    8.3330    1.7974 H         1 <0>         0.1355
     31 H5          2.6549   12.1022    0.2407 H         1 <0>         0.1305
     32 H6          4.0097   13.2644    1.9334 H         1 <0>         0.1292
     33 H7          1.6439   11.2371   -0.9933 H         1 <0>         0.1580
     34 H8          1.9899    5.8458    1.0240 H         1 <0>         0.0760
     35 H9          3.4766    5.9609    0.0517 H         1 <0>         0.1097
     36 H10         3.0796    3.6354    0.8523 H         1 <0>         0.1022
     37 H11         3.0264    3.7364   -0.9244 H         1 <0>         0.0622
     38 H12         0.8565    3.7165   -2.0573 H         1 <0>         0.0631
     39 H13        -0.6302    3.6015   -1.0845 H         1 <0>         0.1015
     40 H14        -0.1800    5.8260   -0.1089 H         1 <0>         0.0753
     41 H15        -0.2332    5.9270   -1.8856 H         1 <0>         0.0947
     42 H16        -0.9590    1.9046    0.0169 H         1 <0>         0.1359
     43 H17        -0.9260   -0.5563    0.0083 H         1 <0>         0.1388
     44 H18         3.3422   -0.5056   -0.0326 H         1 <0>         0.1375
     45 H19         3.3168    1.9554   -0.0179 H         1 <0>         0.1383
@<TRIPOS>BOND
     1    1    6 ar
     2    1    2 ar
     3    1   28 1
     4    2    3 ar
     5    2   29 1
     6    3    4 ar
     7    3   30 1
     8    4    5 ar
     9    4    7 1
    10    5    6 ar
    11    5   31 1
    12    6   32 1
    13    7   14 1
    14    7    8 2
    15    8    9 1
    16    8   33 1
    17    9   10 2
    18    9   11 am
    19   11   12 1
    20   11   13 1
    21   13   14 2
    22   13   15 1
    23   15   20 1
    24   15   16 1
    25   16   17 1
    26   16   34 1
    27   16   35 1
    28   17   18 1
    29   17   36 1
    30   17   37 1
    31   18   19 1
    32   18   21 1
    33   19   20 1
    34   19   38 1
    35   19   39 1
    36   20   40 1
    37   20   41 1
    38   21   26 ar
    39   21   22 ar
    40   22   23 ar
    41   22   42 1
    42   23   24 ar
    43   23   43 1
    44   24   25 ar
    45   24   27 1
    46   25   26 ar
    47   25   44 1
    48   26   45 1
@<TRIPOS>MOLECULE
ZINC29765595
   40    44     0     0     0
SMALL
USER_CHARGES
(2S)-N-[4-(benzofuran-2-yl)thiazol-2-yl]-2,3-dihydrobenzofuran-2-carboxamide
@<TRIPOS>ATOM
      1 C1        -10.3352    0.4605   -4.9827 C.ar      1 <0>        -0.1353
      2 C2        -10.1541    1.3204   -6.0563 C.ar      1 <0>        -0.0902
      3 C3         -8.9483    1.9613   -6.2498 C.ar      1 <0>        -0.1070
      4 C4         -7.9013    1.7468   -5.3631 C.ar      1 <0>         0.0595
      5 C5         -8.0902    0.8738   -4.2770 C.ar      1 <0>        -0.1338
      6 C6         -9.3177    0.2343   -4.0978 C.ar      1 <0>        -0.0675
      7 C7         -6.8194    0.8678   -3.5486 C.2       1 <0>        -0.1557
      8 C8         -5.9949    1.7043   -4.2248 C.2       1 <0>         0.0903
      9 O1         -6.6410    2.2220   -5.2881 O.3       1 <0>        -0.1870
     10 C9         -4.5990    2.0080   -3.8490 C.2       1 <0>         0.1372
     11 C10        -3.8498    2.8710   -4.6039 C.2       1 <0>        -0.2156
     12 S1         -2.3088    2.8547   -3.6975 S.3       1 <0>         0.1343
     13 C11        -2.8082    1.7059   -2.4230 C.2       1 <0>         0.3275
     14 N1         -4.0533    1.4459   -2.7725 N.2       1 <0>        -0.5223
     15 N2         -2.0792    1.2195   -1.3449 N.am      1 <0>        -0.6181
     16 C12        -0.8034    1.6134   -1.1614 C.2       1 <0>         0.5141
     17 O2         -0.2917    2.3925   -1.9373 O.2       1 <0>        -0.4725
     18 C13        -0.0127    1.0858    0.0080 C.3       1 <0>         0.0747
     19 H1          0.0025   -0.0088   -0.1003 H         1 <0>         0.1275
     20 C14        -0.5814    1.6189    1.3444 C.3       1 <0>        -0.0937
     21 C15         0.6789    1.8142    2.1649 C.ar      1 <0>        -0.1713
     22 C16         0.8850    1.9913    3.5152 C.ar      1 <0>        -0.0648
     23 C17         2.1706    2.1390    4.0047 C.ar      1 <0>        -0.1441
     24 C18         3.2445    2.1078    3.1341 C.ar      1 <0>        -0.0803
     25 C19         3.0401    1.9332    1.7812 C.ar      1 <0>        -0.1309
     26 C20         1.7488    1.7874    1.2799 C.ar      1 <0>         0.1039
     27 O3          1.3246    1.6133   -0.0019 O.3       1 <0>        -0.2733
     28 H2        -11.2857   -0.0337   -4.8454 H         1 <0>         0.1312
     29 H3        -10.9663    1.4900   -6.7477 H         1 <0>         0.1370
     30 H4         -8.8187    2.6289   -7.0888 H         1 <0>         0.1338
     31 H5         -9.4632   -0.4365   -3.2640 H         1 <0>         0.1292
     32 H6         -6.5866    0.3100   -2.6535 H         1 <0>         0.1642
     33 H7         -4.1175    3.4149   -5.4978 H         1 <0>         0.2047
     34 H8         -2.5433    0.5129   -0.6411 H         1 <0>         0.4586
     35 H9         -1.1278    2.5561    1.1625 H         1 <0>         0.0994
     36 H10        -1.2658    0.8732    1.7751 H         1 <0>         0.1084
     37 H11         0.0435    2.0145    4.1917 H         1 <0>         0.1287
     38 H12         2.3348    2.2784    5.0630 H         1 <0>         0.1318
     39 H13         4.2486    2.2203    3.5155 H         1 <0>         0.1353
     40 H14         3.8845    1.9094    1.1082 H         1 <0>         0.1321
@<TRIPOS>BOND
     1    1    6 ar
     2    1    2 ar
     3    1   28 1
     4    2    3 ar
     5    2   29 1
     6    3    4 ar
     7    3   30 1
     8    4    9 1
     9    4    5 ar
    10    5    6 ar
    11    5    7 1
    12    6   31 1
    13    7    8 2
    14    7   32 1
    15    8    9 1
    16    8   10 1
    17   10   14 1
    18   10   11 2
    19   11   12 1
    20   11   33 1
    21   12   13 1
    22   13   14 2
    23   13   15 1
    24   15   16 am
    25   15   34 1
    26   16   17 2
    27   16   18 1
    28   18   19 1
    29   18   27 1
    30   18   20 1
    31   20   21 1
    32   20   35 1
    33   20   36 1
    34   21   26 ar
    35   21   22 ar
    36   22   23 ar
    37   22   37 1
    38   23   24 ar
    39   23   38 1
    40   24   25 ar
    41   24   39 1
    42   25   26 ar
    43   25   40 1
    44   26   27 1
@<TRIPOS>MOLECULE
ZINC48030443
   48    51     0     0     0
SMALL
USER_CHARGES

@<TRIPOS>ATOM
      1 C1          1.6092    2.2602   -1.3295 C.ar      1 <0>        -0.1069
      2 C2          2.8851    2.7997   -1.2481 C.ar      1 <0>        -0.0993
      3 C3          3.9672    1.9564   -1.0763 C.ar      1 <0>        -0.0607
      4 C4          3.7635    0.6018   -0.9892 C.ar      1 <0>        -0.1769
      5 C5          2.4789    0.0167   -1.0679 C.ar      1 <0>         0.0982
      6 C6          1.3960    0.9095   -1.2437 C.ar      1 <0>        -0.0658
      7 N1          2.4418   -1.3290   -0.9657 N.2       1 <0>        -0.5339
      8 C7          3.5240   -2.0546   -0.8036 C.2       1 <0>         0.3510
      9 S1          4.8124   -0.8163   -0.7759 S.3       1 <0>         0.1024
     10 N2          3.6380   -3.4285   -0.6850 N.am      1 <0>        -0.5851
     11 C8          4.8513   -3.9925   -0.5227 C.2       1 <0>         0.5153
     12 O1          5.8438   -3.2954   -0.4808 O.2       1 <0>        -0.4689
     13 C9          4.9743   -5.4754   -0.3947 C.2       1 <0>         0.5326
     14 O2          3.9818   -6.1725   -0.4366 O.2       1 <0>        -0.5046
     15 N3          6.1876   -6.0394   -0.2324 N.am      1 <0>        -0.5763
     16 C10         7.4770   -5.3249   -0.2535 C.3       1 <0>         0.0865
     17 C11         8.4408   -6.2221    0.5624 C.3       1 <0>        -0.1356
     18 C12         7.9703   -7.6416    0.1488 C.3       1 <0>        -0.1328
     19 C13         6.4440   -7.4681    0.0011 C.3       1 <0>         0.1415
     20 H1          5.9424   -7.7904    0.9136 H         1 <0>         0.0852
     21 C14         5.9427   -8.2882   -1.1892 C.3       1 <0>        -0.1008
     22 C15         6.2640   -9.7666   -0.9616 C.3       1 <0>        -0.1108
     23 C16         5.7627  -10.5867   -2.1520 C.3       1 <0>        -0.1193
     24 C17         6.4531  -10.1056   -3.4297 C.3       1 <0>        -0.1195
     25 C18         6.1317   -8.6271   -3.6574 C.3       1 <0>        -0.1200
     26 C19         6.6331   -7.8070   -2.4670 C.3       1 <0>        -0.1112
     27 H2          0.7644    2.9205   -1.4591 H         1 <0>         0.1354
     28 H3          3.0313    3.8675   -1.3185 H         1 <0>         0.1394
     29 H4          4.9665    2.3610   -1.0114 H         1 <0>         0.1343
     30 H5          0.3900    0.5222   -1.3110 H         1 <0>         0.1335
     31 H6          2.8447   -3.9857   -0.7185 H         1 <0>         0.4396
     32 H7          7.8344   -5.2173   -1.2776 H         1 <0>         0.0780
     33 H8          7.3770   -4.3477    0.2189 H         1 <0>         0.1052
     34 H9          9.4764   -6.0524    0.2675 H         1 <0>         0.0895
     35 H10         8.3102   -6.0636    1.6329 H         1 <0>         0.0787
     36 H11         8.4219   -7.9370   -0.7982 H         1 <0>         0.0880
     37 H12         8.1999   -8.3667    0.9296 H         1 <0>         0.0868
     38 H13         4.8646   -8.1619   -1.2892 H         1 <0>         0.0880
     39 H14         7.3421   -9.8929   -0.8617 H         1 <0>         0.0657
     40 H15         5.7722  -10.1094   -0.0513 H         1 <0>         0.0635
     41 H16         5.9916  -11.6400   -1.9898 H         1 <0>         0.0631
     42 H17         4.6846  -10.4604   -2.2519 H         1 <0>         0.0620
     43 H18         7.5312  -10.2318   -3.3298 H         1 <0>         0.0612
     44 H19         6.0959  -10.6898   -4.2778 H         1 <0>         0.0608
     45 H20         6.6236   -8.2844   -4.5677 H         1 <0>         0.0608
     46 H21         5.0537   -8.5008   -3.7573 H         1 <0>         0.0608
     47 H22         6.4042   -6.7538   -2.6292 H         1 <0>         0.0557
     48 H23         7.7112   -7.9333   -2.3671 H         1 <0>         0.0657
@<TRIPOS>BOND
     1    1    6 ar
     2    1    2 ar
     3    1   27 1
     4    2    3 ar
     5    2   28 1
     6    3    4 ar
     7    3   29 1
     8    4    9 1
     9    4    5 ar
    10    5    6 ar
    11    5    7 1
    12    6   30 1
    13    7    8 2
    14    8    9 1
    15    8   10 1
    16   10   11 am
    17   10   31 1
    18   11   12 2
    19   11   13 1
    20   13   14 2
    21   13   15 am
    22   15   19 1
    23   15   16 1
    24   16   17 1
    25   16   32 1
    26   16   33 1
    27   17   18 1
    28   17   34 1
    29   17   35 1
    30   18   19 1
    31   18   36 1
    32   18   37 1
    33   19   20 1
    34   19   21 1
    35   21   26 1
    36   21   22 1
    37   21   38 1
    38   22   23 1
    39   22   39 1
    40   22   40 1
    41   23   24 1
    42   23   41 1
    43   23   42 1
    44   24   25 1
    45   24   43 1
    46   24   44 1
    47   25   26 1
    48   25   45 1
    49   25   46 1
    50   26   47 1
    51   26   48 1
@<TRIPOS>MOLECULE
ZINC65138169
   42    45     0     0     0
SMALL
USER_CHARGES

@<TRIPOS>ATOM
      1 C1          1.6831    1.5269    0.4283 C.3       1 <0>        -0.0844
      2 C2          1.7201    0.0204    0.4273 C.2       1 <0>         0.0592
      3 C3          2.3109   -0.6448   -0.5996 C.2       1 <0>        -0.2037
      4 S1          2.0628   -2.3390   -0.0834 S.3       1 <0>         0.0477
      5 C4          1.2008   -1.9787    1.4410 C.2       1 <0>         0.1843
      6 N1          1.1860   -0.6508    1.4215 N.2       1 <0>        -0.4913
      7 C5          0.6591   -2.9039    2.4487 C.2       1 <0>        -0.0865
      8 C6          0.6892   -4.2755    2.4665 C.2       1 <0>        -0.1098
      9 C7          0.1084   -4.9365    3.5296 C.2       1 <0>         0.1076
     10 C8         -0.4735   -4.2069    4.5228 C.2       1 <0>        -0.1705
     11 S2         -0.2005   -2.5323    3.9685 S.3       1 <0>         0.1612
     12 C9         -1.1649   -4.6900    5.7717 C.3       1 <0>        -0.0715
     13 N2          0.1166   -6.3422    3.5871 N.am      1 <0>        -0.6550
     14 C10         0.0261   -7.0636    2.4522 C.2       1 <0>         0.5570
     15 O1          0.0146   -6.5030    1.3765 O.2       1 <0>        -0.4882
     16 C11        -0.0608   -8.5666    2.5196 C.3       1 <0>        -0.0540
     17 H1         -0.7120   -8.8785    3.3361 H         1 <0>         0.1707
     18 C12         1.3100   -9.1754    2.6665 C.2       1 <0>        -0.1249
     19 C13         1.4706   -9.9291    1.5738 C.2       1 <0>        -0.0242
     20 C14         2.7239  -10.7327    1.3049 C.3       1 <0>        -0.0502
     21 C15         3.8459  -10.2004    2.2028 C.3       1 <0>        -0.1235
     22 C16         3.3557  -10.1249    3.6517 C.3       1 <0>        -0.1205
     23 C17         2.3097   -9.0072    3.7723 C.3       1 <0>        -0.0640
     24 N3          0.3712   -9.8504    0.7921 N.2       1 <0>        -0.1491
     25 N4         -0.5290   -9.1221    1.2351 N.2       1 <0>        -0.1246
     26 H2          2.5729    1.9118    0.9264 H         1 <0>         0.0761
     27 H3          1.6559    1.8904   -0.5990 H         1 <0>         0.0762
     28 H4          0.7938    1.8682    0.9581 H         1 <0>         0.0760
     29 H5          2.7962   -0.2574   -1.4833 H         1 <0>         0.2024
     30 H6          1.1576   -4.8267    1.6645 H         1 <0>         0.1556
     31 H7         -0.4370   -4.7806    6.5780 H         1 <0>         0.0844
     32 H8         -1.9376   -3.9767    6.0583 H         1 <0>         0.0834
     33 H9         -1.6200   -5.6621    5.5822 H         1 <0>         0.0802
     34 H10         0.1873   -6.7923    4.4434 H         1 <0>         0.4141
     35 H11         2.5409  -11.7831    1.5313 H         1 <0>         0.0899
     36 H12         3.0102  -10.6253    0.2586 H         1 <0>         0.0905
     37 H13         4.7048  -10.8690    2.1449 H         1 <0>         0.0805
     38 H14         4.1383   -9.2056    1.8666 H         1 <0>         0.0681
     39 H15         2.9062  -11.0769    3.9342 H         1 <0>         0.0719
     40 H16         4.1971   -9.9087    4.3100 H         1 <0>         0.0790
     41 H17         2.7967   -8.0362    3.6827 H         1 <0>         0.0905
     42 H18         1.8064   -9.0786    4.7365 H         1 <0>         0.0891
@<TRIPOS>BOND
     1    1    2 1
     2    1   26 1
     3    1   27 1
     4    1   28 1
     5    2    6 1
     6    2    3 2
     7    3    4 1
     8    3   29 1
     9    4    5 1
    10    5    6 2
    11    5    7 1
    12    7   11 1
    13    7    8 2
    14    8    9 1
    15    8   30 1
    16    9   10 2
    17    9   13 1
    18   10   11 1
    19   10   12 1
    20   12   31 1
    21   12   32 1
    22   12   33 1
    23   13   14 am
    24   13   34 1
    25   14   15 2
    26   14   16 1
    27   16   17 1
    28   16   25 1
    29   16   18 1
    30   18   23 1
    31   18   19 2
    32   19   20 1
    33   19   24 1
    34   20   21 1
    35   20   35 1
    36   20   36 1
    37   21   22 1
    38   21   37 1
    39   21   38 1
    40   22   23 1
    41   22   39 1
    42   22   40 1
    43   23   41 1
    44   23   42 1
    45   24   25 2
@<TRIPOS>MOLECULE
ZINC05041407
   48    49     0     0     0
SMALL
USER_CHARGES
1-(2,6-diisopropylphenyl)-3-(4-nitrophenyl)-urea
@<TRIPOS>ATOM
      1 C1          5.7478   -1.8718   -0.0136 C.3       1 <0>        -0.1369
      2 C2          4.7770   -2.6284   -0.9225 C.3       1 <0>        -0.0509
      3 C3          5.1859   -2.4295   -2.3834 C.3       1 <0>        -0.1453
      4 C4          4.8146   -4.0968   -0.5858 C.ar      1 <0>        -0.0520
      5 C5          6.0201   -4.7706   -0.5646 C.ar      1 <0>        -0.1111
      6 C6          6.0548   -6.1193   -0.2614 C.ar      1 <0>        -0.1105
      7 C7          4.8841   -6.7965    0.0271 C.ar      1 <0>        -0.1110
      8 C8          3.6760   -6.1272    0.0128 C.ar      1 <0>        -0.0765
      9 C9          3.6378   -4.7728   -0.2914 C.ar      1 <0>         0.1462
     10 N1          2.4154   -4.0918   -0.3067 N.am      1 <0>        -0.6805
     11 C10         2.2241   -3.0322    0.5038 C.2       1 <0>         0.7049
     12 O1          3.1372   -2.6222    1.1943 O.2       1 <0>        -0.5412
     13 N2          1.0208   -2.4269    0.5490 N.am      1 <0>        -0.6842
     14 C11         0.8489   -1.2678    1.3140 C.ar      1 <0>         0.2207
     15 C12        -0.0032   -0.2635    0.8737 C.ar      1 <0>        -0.1476
     16 C13        -0.1710    0.8790    1.6313 C.ar      1 <0>        -0.0316
     17 C14         0.5083    1.0235    2.8271 C.ar      1 <0>        -0.0635
     18 C15         1.3574    0.0253    3.2682 C.ar      1 <0>        -0.0322
     19 C16         1.5296   -1.1197    2.5153 C.ar      1 <0>        -0.1207
     20 N3          0.3261    2.2493    3.6365 N.pl3     1 <0>         0.0303
     21 O2         -0.4216    3.1294    3.2492 O.2       1 <0>        -0.1622
     22 O3          0.9238    2.3779    4.6900 O.3       1 <0>        -0.1607
     23 C17         2.4006   -6.8662    0.3263 C.3       1 <0>        -0.0551
     24 C18         2.2069   -8.0001   -0.6824 C.3       1 <0>        -0.1455
     25 C19         2.4827   -7.4486    1.7388 C.3       1 <0>        -0.1435
     26 H1          5.4565   -2.0135    1.0271 H         1 <0>         0.0671
     27 H2          6.7579   -2.2532   -0.1634 H         1 <0>         0.0509
     28 H3          5.7206   -0.8097   -0.2571 H         1 <0>         0.0512
     29 H4          3.7670   -2.2471   -0.7727 H         1 <0>         0.0756
     30 H5          4.4943   -2.9685   -3.0309 H         1 <0>         0.0516
     31 H6          5.1587   -1.3674   -2.6269 H         1 <0>         0.0569
     32 H7          6.1960   -2.8109   -2.5331 H         1 <0>         0.0572
     33 H8          6.9361   -4.2446   -0.7895 H         1 <0>         0.1258
     34 H9          6.9981   -6.6450   -0.2502 H         1 <0>         0.1254
     35 H10         4.9145   -7.8498    0.2636 H         1 <0>         0.1260
     36 H11         1.7058   -4.3825   -0.9007 H         1 <0>         0.4069
     37 H12         0.2739   -2.7946    0.0512 H         1 <0>         0.4146
     38 H13        -0.5337   -0.3756   -0.0603 H         1 <0>         0.1505
     39 H14        -0.8301    1.6624    1.2873 H         1 <0>         0.1584
     40 H15         1.8868    0.1412    4.2024 H         1 <0>         0.1572
     41 H16         2.1927   -1.8991    2.8605 H         1 <0>         0.1645
     42 H17         1.5576   -6.1779    0.2656 H         1 <0>         0.0724
     43 H18         3.0500   -8.6884   -0.6217 H         1 <0>         0.0598
     44 H19         1.2844   -8.5345   -0.4556 H         1 <0>         0.0597
     45 H20         2.1485   -7.5851   -1.6887 H         1 <0>         0.0554
     46 H21         2.6207   -6.6408    2.4574 H         1 <0>         0.0549
     47 H22         1.5602   -7.9831    1.9656 H         1 <0>         0.0590
     48 H23         3.3257   -8.1369    1.7995 H         1 <0>         0.0594
@<TRIPOS>BOND
     1    1    2 1
     2    1   26 1
     3    1   27 1
     4    1   28 1
     5    2    3 1
     6    2    4 1
     7    2   29 1
     8    3   30 1
     9    3   31 1
    10    3   32 1
    11    4    9 ar
    12    4    5 ar
    13    5    6 ar
    14    5   33 1
    15    6    7 ar
    16    6   34 1
    17    7    8 ar
    18    7   35 1
    19    8    9 ar
    20    8   23 1
    21    9   10 1
    22   10   11 am
    23   10   36 1
    24   11   12 2
    25   11   13 am
    26   13   14 1
    27   13   37 1
    28   14   19 ar
    29   14   15 ar
    30   15   16 ar
    31   15   38 1
    32   16   17 ar
    33   16   39 1
    34   17   18 ar
    35   17   20 1
    36   18   19 ar
    37   18   40 1
    38   19   41 1
    39   20   21 2
    40   20   22 1
    41   23   24 1
    42   23   25 1
    43   23   42 1
    44   24   43 1
    45   24   44 1
    46   24   45 1
    47   25   46 1
    48   25   47 1
    49   25   48 1
@<TRIPOS>MOLECULE
ZINC12657135
   42    44     0     0     0
SMALL
USER_CHARGES
4-[(E)-[(2Z)-4-(2-furyl)-2-(2-methylprop-2-enylimino)thiazol-3-yl]iminomethyl]benzene-1,3-diol
@<TRIPOS>ATOM
      1 C1         -3.0893    5.2583    2.5078 C.3       1 <0>        -0.1196
      2 C2         -2.8123    5.9857    1.2173 C.2       1 <0>        -0.1286
      3 C3         -2.9070    7.2913    1.1681 C.2       1 <0>        -0.1670
      4 C4         -2.4264    5.2111   -0.0164 C.3       1 <0>         0.1025
      5 N1         -0.9820    4.9666   -0.0076 N.2       1 <0>        -0.5368
      6 C5         -0.5257    3.7393   -0.0139 C.2       1 <0>         0.3647
      7 N2          0.7811    3.2953   -0.0076 N.pl3     1 <0>        -0.3829
      8 C6          1.0128    1.9445   -0.0161 C.2       1 <0>         0.2146
      9 C7         -0.0333    1.0885   -0.0302 C.2       1 <0>        -0.1988
     10 S1         -1.4304    2.1999   -0.0400 S.3       1 <0>        -0.0495
     11 C8          2.3923    1.4291   -0.0104 C.2       1 <0>         0.0206
     12 C9          2.7555    0.1163   -0.0121 C.2       1 <0>        -0.1668
     13 C10         4.1647    0.0853   -0.0070 C.2       1 <0>        -0.2221
     14 C11         4.5882    1.3639    0.0055 C.2       1 <0>        -0.0138
     15 O1          3.5149    2.1738    0.0034 O.3       1 <0>        -0.1262
     16 N3          1.8467    4.2048    0.0066 N.2       1 <0>        -0.2272
     17 C12         1.6755    5.3981    0.4900 C.2       1 <0>         0.1537
     18 C13         2.7530    6.3967    0.3849 C.ar      1 <0>        -0.1023
     19 C14         2.5698    7.6832    0.8990 C.ar      1 <0>        -0.0469
     20 C15         3.5822    8.6127    0.8033 C.ar      1 <0>        -0.1617
     21 C16         4.7826    8.2788    0.1873 C.ar      1 <0>         0.1458
     22 C17         4.9722    7.0062   -0.3313 C.ar      1 <0>        -0.1834
     23 C18         3.9648    6.0622   -0.2366 C.ar      1 <0>         0.1709
     24 O2          4.1492    4.8158   -0.7435 O.3       1 <0>        -0.4661
     25 O3          5.7740    9.2026    0.0923 O.3       1 <0>        -0.4964
     26 H1         -2.1649    5.1646    3.0777 H         1 <0>         0.0644
     27 H2         -3.8204    5.8183    3.0908 H         1 <0>         0.0675
     28 H3         -3.4830    4.2659    2.2882 H         1 <0>         0.0623
     29 H4         -2.7085    7.8126    0.2433 H         1 <0>         0.1003
     30 H5         -3.1836    7.8465    2.0522 H         1 <0>         0.1018
     31 H6         -2.6923    5.7854   -0.9039 H         1 <0>         0.0946
     32 H7         -2.9561    4.2585   -0.0278 H         1 <0>         0.0580
     33 H8         -0.0258    0.0085   -0.0383 H         1 <0>         0.2093
     34 H9          2.0921   -0.7359   -0.0179 H         1 <0>         0.1538
     35 H10         4.7873   -0.7972   -0.0088 H         1 <0>         0.1527
     36 H11         5.6192    1.6854    0.0151 H         1 <0>         0.2040
     37 H12         0.7432    5.6580    0.9691 H         1 <0>         0.1494
     38 H13         1.6367    7.9474    1.3743 H         1 <0>         0.1394
     39 H14         3.4411    9.6054    1.2046 H         1 <0>         0.1384
     40 H15         5.9066    6.7521   -0.8096 H         1 <0>         0.1397
     41 H16         3.8782    4.7228   -1.6670 H         1 <0>         0.3910
     42 H17         5.7368    9.7383   -0.7119 H         1 <0>         0.3969
@<TRIPOS>BOND
     1    1    2 1
     2    1   26 1
     3    1   27 1
     4    1   28 1
     5    2    3 2
     6    2    4 1
     7    3   29 1
     8    3   30 1
     9    4    5 1
    10    4   31 1
    11    4   32 1
    12    5    6 2
    13    6   10 1
    14    6    7 1
    15    7    8 1
    16    7   16 1
    17    8    9 2
    18    8   11 1
    19    9   10 1
    20    9   33 1
    21   11   15 1
    22   11   12 2
    23   12   13 1
    24   12   34 1
    25   13   14 2
    26   13   35 1
    27   14   15 1
    28   14   36 1
    29   16   17 2
    30   17   18 1
    31   17   37 1
    32   18   23 ar
    33   18   19 ar
    34   19   20 ar
    35   19   38 1
    36   20   21 ar
    37   20   39 1
    38   21   22 ar
    39   21   25 1
    40   22   23 ar
    41   22   40 1
    42   23   24 1
    43   24   41 1
    44   25   42 1
@<TRIPOS>MOLECULE
ZINC30828511
   52    53     0     0     0
SMALL
USER_CHARGES
N-[(3,5-ditert-butyl-4-hydroxy-phenyl)methyleneamino]pyrazine-2-carboxamide
@<TRIPOS>ATOM
      1 C1         -7.2586    5.1464    0.6061 C.3       1 <0>        -0.1551
      2 C2         -6.0560    6.0895    0.5336 C.3       1 <0>        -0.0118
      3 C3         -5.9827    6.9218    1.8153 C.3       1 <0>        -0.1437
      4 C4         -6.2098    7.0203   -0.6709 C.3       1 <0>        -0.1405
      5 C5         -4.7923    5.2817    0.3862 C.ar      1 <0>        -0.1015
      6 C6         -4.8596    3.9078    0.3053 C.ar      1 <0>        -0.0949
      7 C7         -3.6870    3.1598    0.1690 C.ar      1 <0>        -0.1498
      8 C8         -2.4505    3.8093    0.1209 C.ar      1 <0>        -0.0499
      9 C9         -2.3935    5.1840    0.1969 C.ar      1 <0>        -0.1629
     10 C10        -3.5615    5.9233    0.3327 C.ar      1 <0>         0.1925
     11 O1         -3.5000    7.2780    0.4129 O.3       1 <0>        -0.5044
     12 C11        -1.0612    5.8860    0.1388 C.3       1 <0>        -0.0290
     13 C12         0.0478    4.8572   -0.0902 C.3       1 <0>        -0.1454
     14 C13        -1.0662    6.8952   -1.0112 C.3       1 <0>        -0.1577
     15 C14        -0.8128    6.6184    1.4590 C.3       1 <0>        -0.1541
     16 C15        -3.7537    1.6898    0.0825 C.2       1 <0>         0.1236
     17 N1         -4.8581    1.1102   -0.2779 N.2       1 <0>        -0.2327
     18 N2         -5.8659    1.8527   -0.9071 N.am      1 <0>        -0.5825
     19 C16        -7.0695    1.2929   -1.1404 C.2       1 <0>         0.5888
     20 O2         -7.3130    0.1782   -0.7209 O.2       1 <0>        -0.4943
     21 C17        -8.0974    2.0380   -1.9024 C.ar      1 <0>         0.0286
     22 C18        -9.3092    1.4270   -2.2247 C.ar      1 <0>         0.1169
     23 N3        -10.2229    2.0960   -2.9042 N.ar      1 <0>        -0.4350
     24 C19        -9.9899    3.3419   -3.2781 C.ar      1 <0>         0.0794
     25 C20        -8.7861    3.9527   -2.9588 C.ar      1 <0>         0.0531
     26 N4         -7.8702    3.2941   -2.2770 N.ar      1 <0>        -0.4137
     27 H1         -7.3113    4.5480   -0.3154 H         1 <0>         0.0652
     28 H2         -8.1810    5.7360    0.7137 H         1 <0>         0.0592
     29 H3         -7.1481    4.4772    1.4721 H         1 <0>         0.0527
     30 H4         -5.1181    7.5999    1.7632 H         1 <0>         0.0738
     31 H5         -5.8722    6.2525    2.6813 H         1 <0>         0.0493
     32 H6         -6.9051    7.5114    1.9229 H         1 <0>         0.0551
     33 H7         -5.3452    7.6983   -0.7230 H         1 <0>         0.0701
     34 H8         -7.1322    7.6099   -0.5632 H         1 <0>         0.0550
     35 H9         -6.2626    6.4218   -1.5923 H         1 <0>         0.0530
     36 H10        -5.8171    3.4098    0.3466 H         1 <0>         0.1437
     37 H11        -1.5415    3.2350    0.0202 H         1 <0>         0.1369
     38 H12        -2.5262    7.7878    0.3707 H         1 <0>         0.4235
     39 H13         1.0202    5.3696   -0.1326 H         1 <0>         0.0628
     40 H14        -0.1309    4.3306   -1.0393 H         1 <0>         0.0622
     41 H15         0.0513    4.1317    0.7367 H         1 <0>         0.0632
     42 H16        -0.0937    7.4076   -1.0536 H         1 <0>         0.0699
     43 H17        -1.8635    7.6349   -0.8464 H         1 <0>         0.0610
     44 H18        -1.2449    6.3687   -1.9603 H         1 <0>         0.0672
     45 H19         0.1596    7.1308    1.4167 H         1 <0>         0.0682
     46 H20        -0.8093    5.8928    2.2858 H         1 <0>         0.0660
     47 H21        -1.6102    7.3580    1.6236 H         1 <0>         0.0574
     48 H22        -2.8678    1.0839    0.3233 H         1 <0>         0.1905
     49 H23        -5.6748    2.8926   -1.2107 H         1 <0>         0.4244
     50 H24        -9.5000    0.4089   -1.9190 H         1 <0>         0.1852
     51 H25       -10.7391    3.8863   -3.8336 H         1 <0>         0.1798
     52 H26        -8.6005    4.9714   -3.2660 H         1 <0>         0.1803
@<TRIPOS>BOND
     1    1    2 1
     2    1   27 1
     3    1   28 1
     4    1   29 1
     5    2    3 1
     6    2    4 1
     7    2    5 1
     8    3   30 1
     9    3   31 1
    10    3   32 1
    11    4   33 1
    12    4   34 1
    13    4   35 1
    14    5   10 ar
    15    5    6 ar
    16    6    7 ar
    17    6   36 1
    18    7    8 ar
    19    7   16 1
    20    8    9 ar
    21    8   37 1
    22    9   10 ar
    23    9   12 1
    24   10   11 1
    25   11   38 1
    26   12   13 1
    27   12   14 1
    28   12   15 1
    29   13   39 1
    30   13   40 1
    31   13   41 1
    32   14   42 1
    33   14   43 1
    34   14   44 1
    35   15   45 1
    36   15   46 1
    37   15   47 1
    38   16   17 2
    39   16   48 1
    40   17   18 1
    41   18   19 am
    42   18   49 1
    43   19   20 2
    44   19   21 1
    45   21   26 ar
    46   21   22 ar
    47   22   23 ar
    48   22   50 1
    49   23   24 ar
    50   24   25 ar
    51   24   51 1
    52   25   26 ar
    53   25   52 1
@<TRIPOS>MOLECULE
ZINC41632948
   42    45     0     0     0
SMALL
USER_CHARGES

@<TRIPOS>ATOM
      1 C1         -0.0167    1.3784    0.0096 C.ar      1 <0>        -0.1566
      2 C2          1.1698    2.0883    0.0021 C.ar      1 <0>        -0.0798
      3 C3          2.3773    1.4175   -0.0134 C.ar      1 <0>        -0.1499
      4 C4          2.3989    0.0304   -0.0210 C.ar      1 <0>         0.1283
      5 C5          1.2070   -0.6796   -0.0130 C.ar      1 <0>        -0.2094
      6 C6          0.0021   -0.0041    0.0020 C.ar      1 <0>        -0.0788
      7 O1          3.5855   -0.6319   -0.0368 O.3       1 <0>        -0.3026
      8 C7          3.5315   -2.0598   -0.0438 C.3       1 <0>         0.1115
      9 C8          4.9322   -2.6155   -0.0612 C.2       1 <0>         0.1908
     10 C9          5.3902   -3.3418    1.0000 C.2       1 <0>        -0.2667
     11 C10         6.7002   -3.8505    0.9611 C.2       1 <0>         0.5327
     12 O2          7.1412   -4.5041    1.8922 O.2       1 <0>        -0.5241
     13 N1          7.4609   -3.6023   -0.1265 N.am      1 <0>        -0.6123
     14 H1          8.3675   -3.9438   -0.1747 H         1 <0>         0.4238
     15 C11         6.9504   -2.8710   -1.1557 C.2       1 <0>         0.3717
     16 N2          5.7183   -2.4018   -1.1132 N.2       1 <0>        -0.5302
     17 S1          7.9505   -2.5516   -2.5708 S.3       1 <0>         0.0309
     18 C12         6.8781   -1.5669   -3.6529 C.3       1 <0>        -0.0233
     19 C13         7.6217   -1.2210   -4.9172 C.2       1 <0>         0.2789
     20 N3          8.3872   -0.1101   -5.0919 N.pl3     1 <0>        -0.5888
     21 H2          8.5480    0.5863   -4.4362 H         1 <0>         0.4263
     22 C14         8.8934   -0.1580   -6.3755 C.ar      1 <0>         0.0588
     23 C15         9.7213    0.6714   -7.1199 C.ar      1 <0>        -0.1141
     24 C16        10.0472    0.3271   -8.4143 C.ar      1 <0>        -0.0911
     25 C17         9.5531   -0.8413   -8.9770 C.ar      1 <0>        -0.1262
     26 C18         8.7373   -1.6694   -8.2596 C.ar      1 <0>        -0.0575
     27 C19         8.3938   -1.3411   -6.9455 C.ar      1 <0>         0.0432
     28 N4          7.6296   -1.9441   -5.9988 N.2       1 <0>        -0.4601
     29 H3         -0.9596    1.9047    0.0260 H         1 <0>         0.1249
     30 H4          1.1525    3.1682    0.0080 H         1 <0>         0.1302
     31 H5          3.3038    1.9724   -0.0200 H         1 <0>         0.1299
     32 H6          1.2211   -1.7595   -0.0193 H         1 <0>         0.1282
     33 H7         -0.9260   -0.5563    0.0082 H         1 <0>         0.1263
     34 H8          3.0134   -2.4083    0.8497 H         1 <0>         0.0889
     35 H9          2.9951   -2.3988   -0.9302 H         1 <0>         0.0894
     36 H10         4.7565   -3.5225    1.8557 H         1 <0>         0.1632
     37 H11         5.9863   -2.1421   -3.9017 H         1 <0>         0.1405
     38 H12         6.5877   -0.6501   -3.1398 H         1 <0>         0.1266
     39 H13        10.1079    1.5822   -6.6870 H         1 <0>         0.1265
     40 H14        10.6911    0.9713   -8.9947 H         1 <0>         0.1339
     41 H15         9.8160   -1.0983   -9.9925 H         1 <0>         0.1333
     42 H16         8.3581   -2.5761   -8.7074 H         1 <0>         0.1328
@<TRIPOS>BOND
     1    1    6 ar
     2    1    2 ar
     3    1   29 1
     4    2    3 ar
     5    2   30 1
     6    3    4 ar
     7    3   31 1
     8    4    5 ar
     9    4    7 1
    10    5    6 ar
    11    5   32 1
    12    6   33 1
    13    7    8 1
    14    8    9 1
    15    8   34 1
    16    8   35 1
    17    9   16 1
    18    9   10 2
    19   10   11 1
    20   10   36 1
    21   11   12 2
    22   11   13 am
    23   13   14 1
    24   13   15 1
    25   15   16 2
    26   15   17 1
    27   17   18 1
    28   18   19 1
    29   18   37 1
    30   18   38 1
    31   19   28 2
    32   19   20 1
    33   20   21 1
    34   20   22 1
    35   22   27 ar
    36   22   23 ar
    37   23   24 ar
    38   23   39 1
    39   24   25 ar
    40   24   40 1
    41   25   26 ar
    42   25   41 1
    43   26   27 ar
    44   26   42 1
    45   27   28 1
@<TRIPOS>MOLECULE
ZINC66272665
   55    57     0     0     0
SMALL
USER_CHARGES

@<TRIPOS>ATOM
      1 C1         -0.0187    1.5258    0.0104 C.3       1 <0>        -0.1642
      2 C2          0.0021   -0.0041    0.0020 C.3       1 <0>         0.1574
      3 H1         -1.0205   -0.3814    0.0098 H         1 <0>         0.0990
      4 C3          0.7421   -0.5109    1.2415 C.3       1 <0>        -0.1464
      5 C4          0.6567   -2.0144    1.2978 C.2       1 <0>         0.5150
      6 O1          0.0625   -2.6209    0.4316 O.2       1 <0>        -0.4863
      7 N1          1.2407   -2.6852    2.3105 N.am      1 <0>        -0.6529
      8 C5          1.1617   -4.0767    2.3625 C.2       1 <0>         0.3024
      9 C6          0.5359   -4.8809    1.4602 C.2       1 <0>        -0.2776
     10 C7          0.6944   -6.2034    1.8835 C.2       1 <0>         0.0580
     11 N2          1.3864   -6.1997    2.9941 N.2       1 <0>        -0.2840
     12 N3          1.6981   -4.8725    3.3156 N.pl3     1 <0>        -0.3787
     13 C8          2.4665   -4.4252    4.4800 C.3       1 <0>         0.1950
     14 H2          2.5453   -3.3382    4.4676 H         1 <0>         0.0886
     15 C9          3.8673   -5.0387    4.4329 C.3       1 <0>        -0.1587
     16 C10         1.7575   -4.8706    5.7606 C.3       1 <0>        -0.1670
     17 C11         1.1339   -3.7830    6.6376 C.3       1 <0>        -0.1782
     18 C12         2.4076   -4.4971    7.0944 C.3       1 <0>        -0.1657
     19 N4          0.6878   -0.4765   -1.2033 N.am      1 <0>        -0.7207
     20 C13         0.0062   -0.6081   -2.3585 C.2       1 <0>         0.5264
     21 O2         -1.1748   -0.3355   -2.4003 O.2       1 <0>        -0.5362
     22 C14         0.7116   -1.0941   -3.5984 C.3       1 <0>        -0.1057
     23 C15         1.8492   -0.1326   -3.9480 C.3       1 <0>        -0.1086
     24 C16         2.5653   -0.6261   -5.2068 C.3       1 <0>        -0.1185
     25 C17         1.5719   -0.6846   -6.3689 C.3       1 <0>        -0.1225
     26 C18         0.4342   -1.6461   -6.0193 C.3       1 <0>        -0.1208
     27 C19        -0.2819   -1.1527   -4.7605 C.3       1 <0>        -0.0989
     28 H3          1.0039    1.9031    0.0027 H         1 <0>         0.0590
     29 H4         -0.5459    1.8868   -0.8726 H         1 <0>         0.0679
     30 H5         -0.5289    1.8773    0.9072 H         1 <0>         0.0680
     31 H6          1.7879   -0.2080    1.1895 H         1 <0>         0.1052
     32 H7          0.2852   -0.0874    2.1360 H         1 <0>         0.1158
     33 H8          1.7159   -2.2001    3.0031 H         1 <0>         0.4079
     34 H9          0.0100   -4.5551    0.5749 H         1 <0>         0.1712
     35 H10         0.3111   -7.0787    1.3803 H         1 <0>         0.1859
     36 H11         4.3724   -4.7215    3.5205 H         1 <0>         0.0605
     37 H12         4.4391   -4.7060    5.2992 H         1 <0>         0.0770
     38 H13         3.7885   -6.1258    4.4453 H         1 <0>         0.0760
     39 H14         1.2413   -5.8288    5.7032 H         1 <0>         0.1187
     40 H15         1.2286   -2.7502    6.3022 H         1 <0>         0.0936
     41 H16         0.2069   -4.0255    7.1572 H         1 <0>         0.0982
     42 H17         2.3186   -5.2094    7.9146 H         1 <0>         0.1012
     43 H18         3.3403   -3.9341    7.0595 H         1 <0>         0.0983
     44 H19         1.6324   -0.6946   -1.1699 H         1 <0>         0.3958
     45 H20         1.1190   -2.0889   -3.4183 H         1 <0>         0.0963
     46 H21         1.4417    0.8621   -4.1281 H         1 <0>         0.0679
     47 H22         2.5570   -0.0909   -3.1201 H         1 <0>         0.0635
     48 H23         3.3758    0.0589   -5.4558 H         1 <0>         0.0653
     49 H24         2.9728   -1.6209   -5.0266 H         1 <0>         0.0641
     50 H25         1.1644    0.3102   -6.5490 H         1 <0>         0.0627
     51 H26         2.0821   -1.0361   -7.2657 H         1 <0>         0.0629
     52 H27        -0.2735   -1.6878   -6.8472 H         1 <0>         0.0659
     53 H28         0.8417   -2.6409   -5.8392 H         1 <0>         0.0624
     54 H29        -1.0924   -1.8377   -4.5115 H         1 <0>         0.0696
     55 H30        -0.6894   -0.1579   -4.9407 H         1 <0>         0.0690
@<TRIPOS>BOND
     1    1    2 1
     2    1   28 1
     3    1   29 1
     4    1   30 1
     5    2    3 1
     6    2    4 1
     7    2   19 1
     8    4    5 1
     9    4   31 1
    10    4   32 1
    11    5    6 2
    12    5    7 am
    13    7    8 1
    14    7   33 1
    15    8   12 1
    16    8    9 2
    17    9   10 1
    18    9   34 1
    19   10   11 2
    20   10   35 1
    21   11   12 1
    22   12   13 1
    23   13   14 1
    24   13   15 1
    25   13   16 1
    26   15   36 1
    27   15   37 1
    28   15   38 1
    29   16   18 1
    30   16   17 1
    31   16   39 1
    32   17   18 1
    33   17   40 1
    34   17   41 1
    35   18   42 1
    36   18   43 1
    37   19   20 am
    38   19   44 1
    39   20   21 2
    40   20   22 1
    41   22   27 1
    42   22   23 1
    43   22   45 1
    44   23   24 1
    45   23   46 1
    46   23   47 1
    47   24   25 1
    48   24   48 1
    49   24   49 1
    50   25   26 1
    51   25   50 1
    52   25   51 1
    53   26   27 1
    54   26   52 1
    55   26   53 1
    56   27   54 1
    57   27   55 1
@<TRIPOS>MOLECULE
ZINC12362686
   50    52     0     0     0
SMALL
USER_CHARGES
(1R,2S)-2-(4-tert-butylphenyl)-N-[(2-hydroxy-3-nitro-phenyl)methyleneamino]cyclopropane-1-carboxamide
@<TRIPOS>ATOM
      1 C1         -6.4782   -1.2676    3.0707 C.3       1 <0>        -0.1377
      2 C2         -5.0410   -1.0681    3.5562 C.3       1 <0>        -0.0288
      3 C3         -4.2504   -2.3624    3.3549 C.3       1 <0>        -0.1434
      4 C4         -5.0508   -0.7023    5.0418 C.3       1 <0>        -0.1360
      5 C5         -4.3947    0.0429    2.7695 C.ar      1 <0>        -0.0683
      6 C6         -4.9359    1.3146    2.7967 C.ar      1 <0>        -0.1270
      7 C7         -4.3425    2.3339    2.0758 C.ar      1 <0>        -0.1083
      8 C8         -3.2081    2.0814    1.3273 C.ar      1 <0>        -0.0543
      9 C9         -2.6701    0.8085    1.2956 C.ar      1 <0>        -0.0459
     10 C10        -3.2602   -0.2096    2.0210 C.ar      1 <0>        -0.1260
     11 C11        -2.5614    3.1926    0.5411 C.3       1 <0>        -0.0764
     12 H1         -2.7361    4.1998    0.9193 H         1 <0>         0.1210
     13 C12        -1.2032    2.9052   -0.1020 C.3       1 <0>        -0.1482
     14 C13        -2.4542    3.0160   -0.9757 C.3       1 <0>        -0.1819
     15 H2         -2.5585    3.9071   -1.5947 H         1 <0>         0.1274
     16 C14        -3.0032    1.7443   -1.5694 C.2       1 <0>         0.5450
     17 O1         -3.5064    0.9069   -0.8502 O.2       1 <0>        -0.4937
     18 N1         -2.9350    1.5373   -2.8995 N.am      1 <0>        -0.5855
     19 N2         -3.4453    0.3550   -3.4515 N.2       1 <0>        -0.2729
     20 C15        -3.2843    0.1065   -4.7152 C.2       1 <0>         0.1769
     21 C16        -2.3566    0.9261   -5.5150 C.ar      1 <0>        -0.2455
     22 C17        -1.2838    1.5751   -4.8997 C.ar      1 <0>        -0.0355
     23 C18        -0.4191    2.3400   -5.6539 C.ar      1 <0>        -0.2476
     24 C19        -0.6097    2.4677   -7.0193 C.ar      1 <0>         0.0118
     25 C20        -1.6675    1.8305   -7.6400 C.ar      1 <0>        -0.1914
     26 C21        -2.5426    1.0538   -6.8983 C.ar      1 <0>         0.3307
     27 N3         -1.8623    1.9735   -9.1004 N.pl3     1 <0>         0.0633
     28 O2         -1.0907    2.6524   -9.7541 O.2       1 <0>        -0.2588
     29 O3         -2.7941    1.4124   -9.6483 O.3       1 <0>        -0.1558
     30 H3         -6.4712   -1.5282    2.0123 H         1 <0>         0.0581
     31 H4         -6.9457   -2.0712    3.6397 H         1 <0>         0.0544
     32 H5         -7.0414   -0.3455    3.2141 H         1 <0>         0.0551
     33 H6         -3.2266   -2.2203    3.7008 H         1 <0>         0.0568
     34 H7         -4.7179   -3.1660    3.9239 H         1 <0>         0.0544
     35 H8         -4.2434   -2.6231    2.2966 H         1 <0>         0.0601
     36 H9         -5.6141    0.2198    5.1852 H         1 <0>         0.0553
     37 H10        -5.5183   -1.5059    5.6108 H         1 <0>         0.0547
     38 H11        -4.0269   -0.5601    5.3877 H         1 <0>         0.0546
     39 H12        -5.8222    1.5118    3.3815 H         1 <0>         0.1132
     40 H13        -4.7654    3.3274    2.0971 H         1 <0>         0.1136
     41 H14        -1.7864    0.6102    0.7073 H         1 <0>         0.1097
     42 H15        -2.8372   -1.2030    2.0000 H         1 <0>         0.1183
     43 H16        -0.7773    1.9124    0.0437 H         1 <0>         0.1040
     44 H17        -0.4842    3.7232   -0.1464 H         1 <0>         0.1104
     45 H18        -2.5326    2.2068   -3.4745 H         1 <0>         0.3886
     46 H19        -3.8303   -0.7008   -5.1806 H         1 <0>         0.1819
     47 H20        -1.1314    1.4778   -3.8349 H         1 <0>         0.1226
     48 H21         0.4101    2.8419   -5.1775 H         1 <0>         0.1232
     49 H22         0.0719    3.0689   -7.6027 H         1 <0>         0.1281
     50 O4         -3.5789    0.4227   -7.5082 O.3       1 <0>        -0.6241
@<TRIPOS>BOND
     1    1    2 1
     2    1   30 1
     3    1   31 1
     4    1   32 1
     5    2    3 1
     6    2    4 1
     7    2    5 1
     8    3   33 1
     9    3   34 1
    10    3   35 1
    11    4   36 1
    12    4   37 1
    13    4   38 1
    14    5   10 ar
    15    5    6 ar
    16    6    7 ar
    17    6   39 1
    18    7    8 ar
    19    7   40 1
    20    8    9 ar
    21    8   11 1
    22    9   10 ar
    23    9   41 1
    24   10   42 1
    25   11   12 1
    26   11   14 1
    27   11   13 1
    28   13   14 1
    29   13   43 1
    30   13   44 1
    31   14   15 1
    32   14   16 1
    33   16   17 2
    34   16   18 am
    35   18   19 1
    36   18   45 1
    37   19   20 2
    38   20   21 1
    39   20   46 1
    40   21   26 ar
    41   21   22 ar
    42   22   23 ar
    43   22   47 1
    44   23   24 ar
    45   23   48 1
    46   24   25 ar
    47   24   49 1
    48   25   26 ar
    49   25   27 1
    50   26   50 1
    51   27   28 2
    52   27   29 1
@<TRIPOS>MOLECULE
ZINC13270208
   46    48     0     0     0
SMALL
USER_CHARGES
2-chloro-5-[[(3S)-3-(phenylcarbamoyl)-1-piperidyl]sulfonyl]benzoic acid
@<TRIPOS>ATOM
      1 C1         -6.1066    6.0094    7.7452 C.ar      1 <0>        -0.1374
      2 C2         -6.7016    5.0029    7.0069 C.ar      1 <0>        -0.1036
      3 C3         -5.9209    4.1073    6.3026 C.ar      1 <0>        -0.1212
      4 C4         -4.5370    4.2184    6.3365 C.ar      1 <0>         0.1459
      5 C5         -3.9425    5.2269    7.0836 C.ar      1 <0>        -0.1445
      6 C6         -4.7290    6.1230    7.7807 C.ar      1 <0>        -0.1019
      7 N1         -3.7433    3.3128    5.6241 N.am      1 <0>        -0.6736
      8 C7         -4.1664    2.8344    4.4372 C.2       1 <0>         0.5254
      9 O1         -5.2704    3.1228    4.0259 O.2       1 <0>        -0.5122
     10 C8         -3.2679    1.9412    3.6212 C.3       1 <0>        -0.1265
     11 H1         -2.3486    2.4741    3.3783 H         1 <0>         0.1122
     12 C9         -2.9325    0.6827    4.4247 C.3       1 <0>        -0.1069
     13 C10        -1.9936   -0.2098    3.6098 C.3       1 <0>        -0.1353
     14 C11        -2.6995   -0.6376    2.3142 C.3       1 <0>         0.1177
     15 N2         -3.1495    0.5690    1.6069 N.pl3     1 <0>        -0.9976
     16 C12        -3.9836    1.5405    2.3274 C.3       1 <0>         0.1403
     17 S1         -2.7302    0.8258    0.0256 S.o2      1 <0>         2.6934
     18 O2         -3.7151    1.6925   -0.5202 O.2       1 <0>        -0.9465
     19 O3         -2.4453   -0.4501   -0.5314 O.2       1 <0>        -0.9587
     20 C13        -1.2144    1.7241    0.0278 C.ar      1 <0>        -0.6964
     21 C14        -0.0088    1.0437    0.0233 C.ar      1 <0>        -0.0171
     22 C15         1.1858    1.7400    0.0188 C.ar      1 <0>        -0.1512
     23 C16         1.1835    3.1214    0.0250 C.ar      1 <0>         0.0439
     24 C17        -0.0302    3.8140    0.0354 C.ar      1 <0>        -0.1276
     25 C18        -1.2324    3.1028    0.0394 C.ar      1 <0>         0.0329
     26 C19        -0.0417    5.2904    0.0416 C.2       1 <0>         0.4847
     27 O4          1.0055    5.9061    0.0377 O.co2     1 <0>        -0.6024
     28 Cl1         2.6840    3.9944    0.0206 Cl        1 <0>        -0.0312
     29 H2         -6.7193    6.7085    8.2951 H         1 <0>         0.1212
     30 H3         -7.7778    4.9168    6.9812 H         1 <0>         0.1240
     31 H4         -6.3861    3.3212    5.7264 H         1 <0>         0.1389
     32 H5         -2.8664    5.3132    7.1156 H         1 <0>         0.1257
     33 H6         -4.2673    6.9104    8.3580 H         1 <0>         0.1250
     34 H7         -2.8885    3.0292    5.9844 H         1 <0>         0.4111
     35 H8         -2.4450    0.9665    5.3575 H         1 <0>         0.0699
     36 H9         -3.8502    0.1378    4.6460 H         1 <0>         0.0737
     37 H10        -1.0860    0.3429    3.3671 H         1 <0>         0.0746
     38 H11        -1.7360   -1.0945    4.1922 H         1 <0>         0.0814
     39 H12        -3.5596   -1.2633    2.5529 H         1 <0>         0.0770
     40 H13        -2.0048   -1.1929    1.6841 H         1 <0>         0.0939
     41 H14        -4.1364    2.4229    1.7060 H         1 <0>         0.1039
     42 H15        -4.9462    1.0888    2.5672 H         1 <0>         0.0874
     43 H16        -0.0014   -0.0362    0.0188 H         1 <0>         0.1407
     44 H17         2.1227    1.2027    0.0108 H         1 <0>         0.1372
     45 H18        -2.1740    3.6317    0.0470 H         1 <0>         0.1542
     46 O5         -1.2137    5.9549    0.0516 O.co2     1 <0>        -0.7445
@<TRIPOS>BOND
     1    1    6 ar
     2    1    2 ar
     3    1   29 1
     4    2    3 ar
     5    2   30 1
     6    3    4 ar
     7    3   31 1
     8    4    5 ar
     9    4    7 1
    10    5    6 ar
    11    5   32 1
    12    6   33 1
    13    7    8 am
    14    7   34 1
    15    8    9 2
    16    8   10 1
    17   10   11 1
    18   10   16 1
    19   10   12 1
    20   12   13 1
    21   12   35 1
    22   12   36 1
    23   13   14 1
    24   13   37 1
    25   13   38 1
    26   14   15 1
    27   14   39 1
    28   14   40 1
    29   15   16 1
    30   15   17 1
    31   16   41 1
    32   16   42 1
    33   17   18 2
    34   17   19 2
    35   17   20 1
    36   20   25 ar
    37   20   21 ar
    38   21   22 ar
    39   21   43 1
    40   22   23 ar
    41   22   44 1
    42   23   24 ar
    43   23   28 1
    44   24   25 ar
    45   24   26 1
    46   25   45 1
    47   26   27 2
    48   26   46 1
@<TRIPOS>MOLECULE
ZINC22975764
   52    55     0     0     0
SMALL
USER_CHARGES
N-[(2S)-5-ethoxy-2-methyl-2,3-dihydrobenzofuran-6-yl]-3-ethyl-4-oxo-2-sulfanyl-quinazoline-7-carboxamide
@<TRIPOS>ATOM
      1 C1          4.5198   13.4257    4.0052 C.3       1 <0>        -0.1571
      2 C2          4.2124   13.2706    2.5144 C.3       1 <0>         0.0923
      3 N1          3.7861   11.8953    2.2442 N.pl3     1 <0>        -0.5354
      4 C3          4.7073   10.9584    1.9217 C.2       1 <0>         0.5480
      5 O1          5.8904   11.2353    1.8511 O.3       1 <0>        -0.5387
      6 C4          4.2270    9.5924    1.6602 C.ar      1 <0>        -0.2227
      7 C5          5.1020    8.5609    1.3210 C.ar      1 <0>        -0.0278
      8 C6          4.6170    7.3052    1.0924 C.ar      1 <0>        -0.1564
      9 C7          3.2438    7.0437    1.1822 C.ar      1 <0>        -0.0905
     10 C8          2.3543    8.0562    1.5178 C.ar      1 <0>        -0.0667
     11 C9          2.8394    9.3442    1.7607 C.ar      1 <0>         0.2004
     12 N2          2.0093   10.3615    2.0910 N.2       1 <0>        -0.5608
     13 C10         2.4621   11.5695    2.3195 C.2       1 <0>         0.5346
     14 S1          1.3091   12.8324    2.7442 S.2       1 <0>        -0.7609
     15 C11         2.7377    5.6770    0.9235 C.2       1 <0>         0.5641
     16 O2          1.5476    5.4441    1.0050 O.2       1 <0>        -0.5134
     17 N3          3.5966    4.6908    0.5976 N.am      1 <0>        -0.6704
     18 C12         3.1093    3.4278    0.2400 C.ar      1 <0>         0.1745
     19 C13         1.8303    3.3015   -0.2766 C.ar      1 <0>        -0.1219
     20 C14         1.3387    2.0495   -0.6339 C.ar      1 <0>         0.0987
     21 C15         2.1465    0.9331   -0.4582 C.ar      1 <0>        -0.1674
     22 C16         3.4215    1.0539    0.0514 C.ar      1 <0>        -0.1373
     23 C17         3.9120    2.3013    0.4042 C.ar      1 <0>         0.0702
     24 O3          5.1697    2.4246    0.9082 O.3       1 <0>        -0.3150
     25 C18         5.9331    1.2248    1.0481 C.3       1 <0>         0.0564
     26 C19         7.3095    1.5604    1.6259 C.3       1 <0>        -0.1550
     27 C20         1.3459   -0.2708   -0.9169 C.3       1 <0>        -0.0975
     28 C21        -0.0915    0.2992   -0.9611 C.3       1 <0>         0.0790
     29 H1         -0.6907    0.1344   -0.0535 H         1 <0>         0.0894
     30 O4          0.1296    1.7058   -1.1594 O.3       1 <0>        -0.2988
     31 C22        -0.8751   -0.2967   -2.1323 C.3       1 <0>        -0.1567
     32 H2          4.8399   14.4584    4.2081 H         1 <0>         0.0663
     33 H3          5.3238   12.7303    4.2881 H         1 <0>         0.0472
     34 H4          3.6167   13.1999    4.5912 H         1 <0>         0.0696
     35 H5          3.4084   13.9660    2.2315 H         1 <0>         0.1165
     36 H6          5.1155   13.4964    1.9284 H         1 <0>         0.0792
     37 H7          6.1620    8.7535    1.2453 H         1 <0>         0.1326
     38 H8          5.2979    6.5073    0.8353 H         1 <0>         0.1224
     39 H9          1.2966    7.8500    1.5900 H         1 <0>         0.1459
     40 H10         4.6804    4.8781    0.6125 H         1 <0>         0.4419
     41 H11         1.2119    4.1780   -0.4020 H         1 <0>         0.1607
     42 H12         4.0384    0.1762    0.1761 H         1 <0>         0.1318
     43 H13         5.4096    0.5340    1.7255 H         1 <0>         0.0606
     44 H14         6.0547    0.7506    0.0630 H         1 <0>         0.0606
     45 H15         7.8971    0.6367    1.7336 H         1 <0>         0.0775
     46 H16         7.1879    2.0346    2.6110 H         1 <0>         0.0681
     47 H17         7.8330    2.2512    0.9485 H         1 <0>         0.0678
     48 H18         1.7101   -0.5999   -1.9013 H         1 <0>         0.0918
     49 H19         1.4639   -1.0881   -0.1903 H         1 <0>         0.0891
     50 H20        -1.8922    0.1222   -2.1439 H         1 <0>         0.0690
     51 H21        -0.9298   -1.3894   -2.0187 H         1 <0>         0.0779
     52 H22        -0.3666   -0.0512   -3.0763 H         1 <0>         0.0660
@<TRIPOS>BOND
     1    1    2 1
     2    1   32 1
     3    1   33 1
     4    1   34 1
     5    2    3 1
     6    2   35 1
     7    2   36 1
     8    3   13 1
     9    3    4 1
    10    4    5 1
    11    4    6 2
    12    6   11 ar
    13    6    7 ar
    14    7    8 ar
    15    7   37 1
    16    8    9 ar
    17    8   38 1
    18    9   10 ar
    19    9   15 1
    20   10   11 ar
    21   10   39 1
    22   11   12 2
    23   12   13 1
    24   13   14 2
    25   15   16 2
    26   15   17 am
    27   17   18 1
    28   17   40 1
    29   18   23 ar
    30   18   19 ar
    31   19   20 ar
    32   19   41 1
    33   20   30 1
    34   20   21 ar
    35   21   22 ar
    36   21   27 1
    37   22   23 ar
    38   22   42 1
    39   23   24 1
    40   24   25 1
    41   25   26 1
    42   25   43 1
    43   25   44 1
    44   26   45 1
    45   26   46 1
    46   26   47 1
    47   27   28 1
    48   27   48 1
    49   27   49 1
    50   28   29 1
    51   28   30 1
    52   28   31 1
    53   31   50 1
    54   31   51 1
    55   31   52 1
@<TRIPOS>MOLECULE
ZINC50007171
   45    47     0     0     0
SMALL
USER_CHARGES

@<TRIPOS>ATOM
      1 C1         -0.0184    1.5028    0.0103 C.3       1 <0>        -0.0630
      2 C2          0.0021   -0.0041    0.0020 C.2       1 <0>        -0.1771
      3 C3         -1.0420   -0.8718    0.0018 C.2       1 <0>        -0.1598
      4 C4         -0.7892   -2.2262   -0.0075 C.2       1 <0>        -0.1444
      5 C5          0.5115   -2.6529   -0.0161 C.2       1 <0>        -0.0447
      6 S1          1.4054   -1.1074   -0.0179 S.3       1 <0>         0.1186
      7 C6          1.0389   -4.0341   -0.0260 C.2       1 <0>         0.2819
      8 N1          2.3357   -4.3712   -0.0341 N.2       1 <0>        -0.5418
      9 C7          2.4528   -5.6848   -0.0413 C.2       1 <0>         0.5238
     10 N2          1.2004   -6.2158   -0.0378 N.pl3     1 <0>        -0.5129
     11 N3          0.3098   -5.1303   -0.0227 N.2       1 <0>        -0.3439
     12 N4          3.6219   -6.3863   -0.0510 N.2       1 <0>        -0.6600
     13 C8          4.7605   -5.7542   -0.0534 C.2       1 <0>         0.4224
     14 O1          4.7832   -4.4074   -0.0463 O.3       1 <0>        -0.6696
     15 C9          6.0527   -6.5295   -0.0641 C.3       1 <0>        -0.0725
     16 C10         5.7478   -8.0289   -0.0706 C.3       1 <0>        -0.0549
     17 C11         7.0400   -8.8042   -0.0813 C.ar      1 <0>        -0.1812
     18 C12         7.6441   -9.1572   -1.2781 C.ar      1 <0>         0.1902
     19 N5          8.7778   -9.8378   -1.2526 N.ar      1 <0>        -0.5053
     20 C13         9.3357  -10.1817   -0.1004 C.ar      1 <0>         0.2914
     21 N6          8.7838   -9.8597    1.0610 N.ar      1 <0>        -0.5321
     22 C14         7.6532   -9.1748    1.1054 C.ar      1 <0>         0.1894
     23 C15         7.0360   -8.8069    2.4300 C.3       1 <0>        -0.1092
     24 S2         10.8462  -11.0888   -0.1129 S.3       1 <0>        -0.0200
     25 C16        11.2272  -11.3312    1.6440 C.3       1 <0>        -0.1379
     26 C17         7.0162   -8.7705   -2.5923 C.3       1 <0>        -0.1098
     27 H1          1.0042    1.8801    0.0026 H         1 <0>         0.0697
     28 H2         -0.5455    1.8639   -0.8728 H         1 <0>         0.0749
     29 H3         -0.5286    1.8543    0.9071 H         1 <0>         0.0749
     30 H4         -2.0579   -0.5052    0.0090 H         1 <0>         0.1280
     31 H5         -1.6018   -2.9377   -0.0075 H         1 <0>         0.1349
     32 H6          6.6241   -6.2711   -0.9557 H         1 <0>         0.0737
     33 H7          6.6332   -6.2806    0.8242 H         1 <0>         0.0727
     34 H8          5.1764   -8.2873    0.8209 H         1 <0>         0.0856
     35 H9          5.1674   -8.2778   -0.9590 H         1 <0>         0.0878
     36 H10         6.3581   -9.5992    2.7476 H         1 <0>         0.0852
     37 H11         7.8220   -8.6810    3.1746 H         1 <0>         0.0781
     38 H12         6.4814   -7.8743    2.3259 H         1 <0>         0.0908
     39 H13        11.3346  -10.3613    2.1296 H         1 <0>         0.0873
     40 H14        10.4182  -11.8872    2.1178 H         1 <0>         0.0868
     41 H15        12.1576  -11.8908    1.7402 H         1 <0>         0.1069
     42 H16         7.3933   -7.7959   -2.9024 H         1 <0>         0.0878
     43 H17         7.2677   -9.5146   -3.3480 H         1 <0>         0.0791
     44 H18         5.9334   -8.7212   -2.4771 H         1 <0>         0.0909
     45 H19         0.9685   -7.1577   -0.0418 H         1 <0>         0.4271
@<TRIPOS>BOND
     1    1    2 1
     2    1   27 1
     3    1   28 1
     4    1   29 1
     5    2    6 1
     6    2    3 2
     7    3    4 1
     8    3   30 1
     9    4    5 2
    10    4   31 1
    11    5    6 1
    12    5    7 1
    13    7    8 1
    14    7   11 2
    15    8    9 2
    16    9   12 1
    17    9   10 1
    18   10   11 1
    19   10   45 1
    20   12   13 2
    21   13   14 1
    22   13   15 1
    23   15   16 1
    24   15   32 1
    25   15   33 1
    26   16   17 1
    27   16   34 1
    28   16   35 1
    29   17   22 ar
    30   17   18 ar
    31   18   19 ar
    32   18   26 1
    33   19   20 ar
    34   20   21 ar
    35   20   24 1
    36   21   22 ar
    37   22   23 1
    38   23   36 1
    39   23   37 1
    40   23   38 1
    41   24   25 1
    42   25   39 1
    43   25   40 1
    44   25   41 1
    45   26   42 1
    46   26   43 1
    47   26   44 1
@<TRIPOS>MOLECULE
ZINC65055160
   43    45     0     0     0
SMALL
USER_CHARGES

@<TRIPOS>ATOM
      1 C1         -0.0238    1.5302    0.0833 C.3       1 <0>        -0.0906
      2 C2         -0.0060    0.0234    0.0640 C.ar      1 <0>        -0.1951
      3 C3         -0.0107   -0.6512   -1.1431 C.ar      1 <0>        -0.0784
      4 C4          0.0056   -2.0320   -1.1644 C.ar      1 <0>        -0.1748
      5 C5          0.0267   -2.7432    0.0287 C.ar      1 <0>         0.2719
      6 C6          0.0313   -2.0624    1.2395 C.ar      1 <0>        -0.2563
      7 C7          0.0207   -0.6815    1.2535 C.ar      1 <0>        -0.0667
      8 N1          0.0427   -4.1397    0.0108 N.2       1 <0>        -1.0659
      9 S1          0.0679   -4.9858    1.4342 S.o2      1 <0>         2.5385
     10 O1          1.3052   -4.6385    2.0406 O.2       1 <0>        -0.9979
     11 O2         -1.1638   -4.6671    2.0672 O.2       1 <0>        -0.9901
     12 C8          0.0828   -6.7308    0.9391 C.3       1 <0>        -0.5004
     13 H1          0.9991   -6.9687    0.3988 H         1 <0>         0.2050
     14 C9         -0.0762   -7.6336    2.1498 C.2       1 <0>        -0.2202
     15 C10        -1.2272   -8.2994    1.9051 C.2       1 <0>         0.0906
     16 N2         -1.7561   -7.9091    0.7242 N.2       1 <0>        -0.1872
     17 N3         -1.1004   -7.0503    0.1229 N.2       1 <0>        -0.0489
     18 C11        -1.8346   -9.3315    2.8199 C.3       1 <0>        -0.0986
     19 C12         0.8127   -7.7554    3.3139 C.2       1 <0>         0.5897
     20 O3          0.5402   -8.5335    4.2084 O.2       1 <0>        -0.5015
     21 N4          1.9296   -7.0051    3.3904 N.am      1 <0>        -0.6559
     22 C13         2.7141   -7.0336    4.5495 C.ar      1 <0>         0.1202
     23 C14         2.1436   -7.3802    5.7669 C.ar      1 <0>        -0.0798
     24 C15         2.9193   -7.4082    6.9095 C.ar      1 <0>        -0.1385
     25 C16         4.2656   -7.0907    6.8427 C.ar      1 <0>         0.1067
     26 C17         4.8383   -6.7441    5.6306 C.ar      1 <0>        -0.1688
     27 C18         4.0675   -6.7205    4.4826 C.ar      1 <0>         0.1058
     28 F1          4.6272   -6.3882    3.2988 F         1 <0>        -0.1228
     29 F2          5.0214   -7.1187    7.9621 F         1 <0>        -0.1331
     30 H2          0.9994    1.9058    0.0722 H         1 <0>         0.0505
     31 H3         -0.5556    1.8985   -0.7940 H         1 <0>         0.0517
     32 H4         -0.5280    1.8761    0.9856 H         1 <0>         0.0503
     33 H5         -0.0275   -0.0976   -2.0703 H         1 <0>         0.1060
     34 H6          0.0015   -2.5582   -2.1075 H         1 <0>         0.1144
     35 H7          0.0474   -2.6123    2.1689 H         1 <0>         0.0960
     36 H8          0.0288   -0.1515    2.1945 H         1 <0>         0.1012
     37 H9         -2.5101   -8.8424    3.5217 H         1 <0>         0.0931
     38 H10        -2.3898  -10.0595    2.2285 H         1 <0>         0.0855
     39 H11        -1.0431   -9.8391    3.3713 H         1 <0>         0.0985
     40 H12         2.1900   -6.4453    2.6422 H         1 <0>         0.4279
     41 H13         1.0936   -7.6274    5.8205 H         1 <0>         0.1666
     42 H14         2.4751   -7.6778    7.8563 H         1 <0>         0.1477
     43 H15         5.8883   -6.4961    5.5810 H         1 <0>         0.1538
@<TRIPOS>BOND
     1    1    2 1
     2    1   30 1
     3    1   31 1
     4    1   32 1
     5    2    7 ar
     6    2    3 ar
     7    3    4 ar
     8    3   33 1
     9    4    5 ar
    10    4   34 1
    11    5    6 ar
    12    5    8 1
    13    6    7 ar
    14    6   35 1
    15    7   36 1
    16    8    9 1
    17    9   10 2
    18    9   11 2
    19    9   12 1
    20   12   13 1
    21   12   17 1
    22   12   14 1
    23   14   15 2
    24   14   19 1
    25   15   16 1
    26   15   18 1
    27   16   17 2
    28   18   37 1
    29   18   38 1
    30   18   39 1
    31   19   20 2
    32   19   21 am
    33   21   22 1
    34   21   40 1
    35   22   27 ar
    36   22   23 ar
    37   23   24 ar
    38   23   41 1
    39   24   25 ar
    40   24   42 1
    41   25   26 ar
    42   25   29 1
    43   26   27 ar
    44   26   43 1
    45   27   28 1
@<TRIPOS>MOLECULE
ZINC12034666
   69    72     0     0     0
SMALL
USER_CHARGES
(5S)-3-(3-dimethylaminopropyl)-5-[(3-fluorophenyl)methyl]-5-[1-(3-methylfuran-2-carbonyl)-4-piperidyl]imidazolidine-2,4-dione
@<TRIPOS>ATOM
      1 C1          2.3976    3.4689    0.5212 C.3       1 <0>        -0.0980
      2 C2          3.8221    3.1210    0.1737 C.2       1 <0>        -0.0736
      3 C3          4.8929    4.0174    0.0325 C.2       1 <0>        -0.2200
      4 C4          5.9849    3.2862   -0.2821 C.2       1 <0>        -0.0094
      5 O1          5.6364    1.9943   -0.3398 O.3       1 <0>        -0.1629
      6 C5          4.3212    1.8726   -0.0649 C.2       1 <0>        -0.0966
      7 C6          3.5608    0.6191   -0.0286 C.2       1 <0>         0.6068
      8 O2          2.3514    0.6446    0.1041 O.2       1 <0>        -0.5109
      9 N1          4.2015   -0.5612   -0.1423 N.am      1 <0>        -0.6088
     10 C7          3.4451   -1.8165   -0.2465 C.3       1 <0>         0.1146
     11 C8          3.9204   -2.5709   -1.4976 C.3       1 <0>        -0.1388
     12 C9          5.4380   -2.7558   -1.4288 C.3       1 <0>        -0.0824
     13 C10         6.1200   -1.3860   -1.4047 C.3       1 <0>        -0.1323
     14 C11         5.6696   -0.6177   -0.1582 C.3       1 <0>         0.0943
     15 C12         5.9118   -3.5395   -2.6545 C.3       1 <0>         0.1340
     16 C13         5.7407   -2.7140   -3.9142 C.2       1 <0>         0.5384
     17 O3          4.7041   -2.2838   -4.3726 O.2       1 <0>        -0.4502
     18 N2          6.9855   -2.5589   -4.4163 N.am      1 <0>        -0.5782
     19 C14         7.9040   -3.1677   -3.6575 C.2       1 <0>         0.7069
     20 O4          9.0935   -3.1689   -3.9070 O.2       1 <0>        -0.5364
     21 N3          7.3638   -3.7784   -2.5875 N.am      1 <0>        -0.7120
     22 C15         7.2909   -1.8177   -5.6425 C.3       1 <0>         0.1244
     23 C16         7.2341   -2.7679   -6.8403 C.3       1 <0>        -0.1729
     24 C17         7.5531   -1.9938   -8.1209 C.3       1 <0>        -0.0009
     25 C18         6.1310   -3.3958   -9.4901 C.3       1 <0>        -0.0490
     26 C19         8.0268   -2.2609  -10.4803 C.3       1 <0>        -0.0424
     27 C20         5.1533   -4.8632   -2.7712 C.3       1 <0>        -0.0831
     28 C21         5.7216   -5.6690   -3.9109 C.ar      1 <0>        -0.0651
     29 C22         6.7614   -6.5512   -3.6824 C.ar      1 <0>        -0.1072
     30 C23         7.2837   -7.2909   -4.7268 C.ar      1 <0>        -0.0826
     31 C24         6.7668   -7.1494   -6.0009 C.ar      1 <0>        -0.1503
     32 C25         5.7257   -6.2664   -6.2308 C.ar      1 <0>         0.0896
     33 C26         5.1995   -5.5300   -5.1826 C.ar      1 <0>        -0.1528
     34 F1          5.2194   -6.1276   -7.4756 F         1 <0>        -0.1444
     35 H1          1.8357    3.6559   -0.3939 H         1 <0>         0.0775
     36 H2          1.9431    2.6399    1.0636 H         1 <0>         0.0845
     37 H3          2.3837    4.3625    1.1451 H         1 <0>         0.0710
     38 H4          4.8527    5.0895    0.1565 H         1 <0>         0.1585
     39 H5          6.9754    3.6789   -0.4585 H         1 <0>         0.2107
     40 H6          3.6231   -2.4251    0.6401 H         1 <0>         0.0759
     41 H7          2.3812   -1.5959   -0.3333 H         1 <0>         0.1019
     42 H8          3.6635   -1.9994   -2.3895 H         1 <0>         0.0860
     43 H9          3.4364   -3.5467   -1.5383 H         1 <0>         0.0883
     44 H10         5.6962   -3.3060   -0.5239 H         1 <0>         0.1036
     45 H11         5.8424   -0.8256   -2.2975 H         1 <0>         0.0652
     46 H12         7.2017   -1.5179   -1.3796 H         1 <0>         0.0809
     47 H13         6.0738    0.3942   -0.1868 H         1 <0>         0.1167
     48 H14         6.0252   -1.1304    0.7354 H         1 <0>         0.0769
     49 H15         7.8381   -4.2781   -1.9046 H         1 <0>         0.4439
     50 H16         6.5602   -1.0201   -5.7765 H         1 <0>         0.1051
     51 H17         8.2894   -1.3870   -5.5675 H         1 <0>         0.1090
     52 H18         7.9648   -3.5656   -6.7063 H         1 <0>         0.0953
     53 H19         6.2357   -3.1987   -6.9153 H         1 <0>         0.0922
     54 H20         6.8224   -1.1962   -8.2549 H         1 <0>         0.1363
     55 H21         8.5516   -1.5631   -8.0459 H         1 <0>         0.1357
     56 H22         5.4691   -2.5514   -9.6822 H         1 <0>         0.1258
     57 H23         6.1192   -4.0691  -10.3473 H         1 <0>         0.1250
     58 H24         5.7901   -3.9304   -8.6035 H         1 <0>         0.1201
     59 H25         9.0640   -1.9703  -10.3136 H         1 <0>         0.1228
     60 H26         7.9747   -2.9582  -11.3165 H         1 <0>         0.1238
     61 H27         7.4336   -1.3753  -10.7083 H         1 <0>         0.1244
     62 H28         5.2567   -5.4243   -1.8425 H         1 <0>         0.1082
     63 H29         4.0985   -4.6623   -2.9588 H         1 <0>         0.1084
     64 H30         7.1657   -6.6627   -2.6872 H         1 <0>         0.1335
     65 H31         8.0956   -7.9800   -4.5471 H         1 <0>         0.1389
     66 H32         7.1748   -7.7277   -6.8166 H         1 <0>         0.1371
     67 H33         4.3844   -4.8441   -5.3600 H         1 <0>         0.1354
     68 N4          7.5152   -2.9288   -9.2651 N.4       1 <0>        -0.3974
     69 H34         8.1102   -3.7385   -9.0540 H         1 <0>         0.4312
@<TRIPOS>BOND
     1    1    2 1
     2    1   35 1
     3    1   36 1
     4    1   37 1
     5    2    6 2
     6    2    3 1
     7    3    4 2
     8    3   38 1
     9    4    5 1
    10    4   39 1
    11    5    6 1
    12    6    7 1
    13    7    8 2
    14    7    9 am
    15    9   14 1
    16    9   10 1
    17   10   11 1
    18   10   40 1
    19   10   41 1
    20   11   12 1
    21   11   42 1
    22   11   43 1
    23   12   13 1
    24   12   15 1
    25   12   44 1
    26   13   14 1
    27   13   45 1
    28   13   46 1
    29   14   47 1
    30   14   48 1
    31   15   21 1
    32   15   16 1
    33   15   27 1
    34   16   17 2
    35   16   18 am
    36   18   19 am
    37   18   22 1
    38   19   20 2
    39   19   21 am
    40   21   49 1
    41   22   23 1
    42   22   50 1
    43   22   51 1
    44   23   24 1
    45   23   52 1
    46   23   53 1
    47   24   54 1
    48   24   55 1
    49   24   68 1
    50   25   56 1
    51   25   57 1
    52   25   58 1
    53   25   68 1
    54   26   59 1
    55   26   60 1
    56   26   61 1
    57   26   68 1
    58   27   28 1
    59   27   62 1
    60   27   63 1
    61   28   33 ar
    62   28   29 ar
    63   29   30 ar
    64   29   64 1
    65   30   31 ar
    66   30   65 1
    67   31   32 ar
    68   31   66 1
    69   32   33 ar
    70   32   34 1
    71   33   67 1
    72   68   69 1
@<TRIPOS>MOLECULE
ZINC06443779
   67    72     0     0     0
SMALL
USER_CHARGES
3-[(R)-(1-cyclopentyltetrazol-5-yl)-[4-(2-fluorophenyl)piperazin-1-yl]methyl]-8-methyl-1H-quinolin-2-one
@<TRIPOS>ATOM
      1 C1          5.5181   -1.8719   -5.8094 C.3       1 <0>        -0.1236
      2 C2          4.1646   -2.2647   -5.2757 C.ar      1 <0>        -0.1268
      3 C3          3.3081   -3.0185   -6.0492 C.ar      1 <0>        -0.0388
      4 C4          2.0586   -3.3864   -5.5696 C.ar      1 <0>        -0.1371
      5 C5          1.6540   -3.0074   -4.3208 C.ar      1 <0>        -0.0465
      6 C6          2.5064   -2.2424   -3.5183 C.ar      1 <0>        -0.1532
      7 C7          3.7747   -1.8676   -4.0012 C.ar      1 <0>         0.2003
      8 N1          4.6109   -1.1130   -3.2062 N.am      1 <0>        -0.6156
      9 H1          5.4842   -0.8553   -3.5404 H         1 <0>         0.4269
     10 C8          4.2307   -0.7239   -1.9765 C.2       1 <0>         0.5424
     11 O1          4.9938   -0.0531   -1.3033 O.2       1 <0>        -0.5220
     12 C9          2.9728   -1.0779   -1.4434 C.2       1 <0>        -0.2830
     13 C10         2.1047   -1.8188   -2.1756 C.2       1 <0>         0.0758
     14 C11         2.5905   -0.6256   -0.0577 C.3       1 <0>         0.2165
     15 H2          1.6284   -1.0601    0.2139 H         1 <0>         0.1613
     16 C12         2.4884    0.8777   -0.0302 C.2       1 <0>         0.1086
     17 N2          3.4843    1.7298   -0.0297 N.2       1 <0>        -0.2472
     18 N3          2.9902    2.9194   -0.0029 N.2       1 <0>        -0.0585
     19 N4          1.7048    2.8483    0.0081 N.2       1 <0>        -0.0495
     20 N5          1.3568    1.6060   -0.0023 N.pl3     1 <0>        -0.2723
     21 C13        -0.0127    1.0858    0.0080 C.3       1 <0>         0.1249
     22 C14        -0.7629    1.5973    1.2552 C.3       1 <0>        -0.1310
     23 C15        -1.5309    2.8450    0.7505 C.3       1 <0>        -0.1285
     24 C16        -1.9779    2.4205   -0.6705 C.3       1 <0>        -0.1233
     25 C17        -0.7845    1.6092   -1.2159 C.3       1 <0>        -0.1331
     26 C18         3.8052   -2.5201    0.8367 C.3       1 <0>        -0.0015
     27 C19         4.9318   -2.9261    1.7899 C.3       1 <0>         0.0150
     28 N6          4.5916   -2.5018    3.1551 N.pl3     1 <0>        -0.4825
     29 C20         4.4003   -1.0461    3.2188 C.3       1 <0>         0.0283
     30 C21         3.2737   -0.6401    2.2656 C.3       1 <0>         0.0017
     31 C22         5.5659   -2.9195    4.0672 C.ar      1 <0>         0.0612
     32 C23         5.3959   -2.6822    5.4244 C.ar      1 <0>        -0.0999
     33 C24         6.3583   -3.0995    6.3235 C.ar      1 <0>        -0.0994
     34 C25         7.4950   -3.7452    5.8729 C.ar      1 <0>        -0.0965
     35 C26         7.6713   -3.9797    4.5215 C.ar      1 <0>        -0.1239
     36 C27         6.7102   -3.5687    3.6162 C.ar      1 <0>         0.0556
     37 F1          6.8828   -3.7970    2.2959 F         1 <0>        -0.1368
     38 H3          5.4406   -0.9169   -6.3291 H         1 <0>         0.0826
     39 H4          6.2219   -1.7792   -4.9822 H         1 <0>         0.0648
     40 H5          5.8709   -2.6354   -6.5027 H         1 <0>         0.0865
     41 H6          3.6125   -3.3263   -7.0387 H         1 <0>         0.1437
     42 H7          1.4002   -3.9772   -6.1892 H         1 <0>         0.1422
     43 H8          0.6803   -3.2977   -3.9549 H         1 <0>         0.1438
     44 H9          1.1382   -2.0902   -1.7773 H         1 <0>         0.1593
     45 H10         0.0021   -0.0041    0.0020 H         1 <0>         0.1169
     46 H11        -1.4596    0.8416    1.6179 H         1 <0>         0.1013
     47 H12        -0.0569    1.8738    2.0383 H         1 <0>         0.0792
     48 H13        -0.8713    3.7116    0.7051 H         1 <0>         0.0809
     49 H14        -2.3952    3.0487    1.3826 H         1 <0>         0.0834
     50 H15        -2.1585    3.2978   -1.2916 H         1 <0>         0.0810
     51 H16        -2.8710    1.7977   -0.6193 H         1 <0>         0.0786
     52 H17        -0.1404    2.2509   -1.8171 H         1 <0>         0.0819
     53 H18        -1.1443    0.7734   -1.8159 H         1 <0>         0.0904
     54 H19         2.8827   -3.0213    1.1297 H         1 <0>         0.1423
     55 H20         4.0685   -2.8081   -0.1810 H         1 <0>         0.1325
     56 H21         5.8604   -2.4462    1.4807 H         1 <0>         0.0864
     57 H22         5.0564   -4.0087    1.7660 H         1 <0>         0.1404
     58 H23         5.3228   -0.5449    2.9258 H         1 <0>         0.0737
     59 H24         4.1370   -0.7581    4.2366 H         1 <0>         0.1320
     60 H25         3.1495    0.4425    2.2896 H         1 <0>         0.1275
     61 H26         2.3452   -1.1200    2.5749 H         1 <0>         0.1430
     62 H27         4.5105   -2.1743    5.7775 H         1 <0>         0.1395
     63 H28         6.2243   -2.9178    7.3796 H         1 <0>         0.1404
     64 H29         8.2471   -4.0667    6.5781 H         1 <0>         0.1411
     65 H30         8.5605   -4.4840    4.1729 H         1 <0>         0.1430
     66 N7          3.6383   -1.0525    0.8940 N.4       1 <0>        -0.3924
     67 H31         4.5258   -0.6053    0.6358 H         1 <0>         0.4460
@<TRIPOS>BOND
     1    1    2 1
     2    1   38 1
     3    1   39 1
     4    1   40 1
     5    2    7 ar
     6    2    3 ar
     7    3    4 ar
     8    3   41 1
     9    4    5 ar
    10    4   42 1
    11    5    6 ar
    12    5   43 1
    13    6   13 1
    14    6    7 ar
    15    7    8 1
    16    8    9 1
    17    8   10 am
    18   10   11 2
    19   10   12 1
    20   12   13 2
    21   12   14 1
    22   13   44 1
    23   14   15 1
    24   14   16 1
    25   14   66 1
    26   16   20 1
    27   16   17 2
    28   17   18 1
    29   18   19 2
    30   19   20 1
    31   20   21 1
    32   21   25 1
    33   21   22 1
    34   21   45 1
    35   22   23 1
    36   22   46 1
    37   22   47 1
    38   23   24 1
    39   23   48 1
    40   23   49 1
    41   24   25 1
    42   24   50 1
    43   24   51 1
    44   25   52 1
    45   25   53 1
    46   26   27 1
    47   26   54 1
    48   26   55 1
    49   26   66 1
    50   27   28 1
    51   27   56 1
    52   27   57 1
    53   28   29 1
    54   28   31 1
    55   29   30 1
    56   29   58 1
    57   29   59 1
    58   30   60 1
    59   30   61 1
    60   30   66 1
    61   31   36 ar
    62   31   32 ar
    63   32   33 ar
    64   32   62 1
    65   33   34 ar
    66   33   63 1
    67   34   35 ar
    68   34   64 1
    69   35   36 ar
    70   35   65 1
    71   36   37 1
    72   66   67 1
@<TRIPOS>MOLECULE
ZINC08582795
   72    77     0     0     0
SMALL
USER_CHARGES
3-[(S)-4-azaspiro[5.5]undecan-4-yl-[1-[[(2S)-tetrahydrofuran-2-yl]methyl]tetrazol-5-yl]methyl]-8-methyl-quinolin-2-ol
@<TRIPOS>ATOM
      1 C1          2.8389    2.2275    7.7964 C.3       1 <0>        -0.1169
      2 C2          3.2506    1.7032    6.4448 C.ar      1 <0>        -0.0566
      3 C3          3.7665    0.4487    6.3268 C.ar      1 <0>        -0.0811
      4 C4          4.1527   -0.0552    5.0873 C.ar      1 <0>        -0.0916
      5 C5          4.0239    0.6948    3.9574 C.ar      1 <0>        -0.0997
      6 C6          3.4959    1.9922    4.0422 C.ar      1 <0>        -0.1063
      7 C7          3.1029    2.5069    5.3019 C.ar      1 <0>         0.1644
      8 N1          2.5993    3.7434    5.3893 N.ar      1 <0>        -0.4530
      9 C8          2.4637    4.5022    4.3234 C.ar      1 <0>         0.3460
     10 C9          2.8283    4.0494    3.0493 C.ar      1 <0>        -0.2224
     11 C10         3.3476    2.7986    2.8956 C.ar      1 <0>         0.0063
     12 C11         2.6526    4.9460    1.8509 C.3       1 <0>         0.1955
     13 H1          3.2046    4.5351    1.0056 H         1 <0>         0.1610
     14 C12         1.1897    5.0347    1.5001 C.2       1 <0>         0.1174
     15 N2          0.2819    5.7595    2.1072 N.2       1 <0>        -0.2921
     16 N3         -0.8451    5.5645    1.5139 N.2       1 <0>        -0.0465
     17 N4         -0.6786    4.7385    0.5406 N.2       1 <0>        -0.0277
     18 N5          0.5615    4.3844    0.5030 N.pl3     1 <0>        -0.2700
     19 C13         1.1723    3.4543   -0.4498 C.3       1 <0>         0.1038
     20 C14         0.9891    2.0196    0.0491 C.3       1 <0>         0.0538
     21 H2          1.4231    1.8989    1.0417 H         1 <0>         0.0775
     22 C15         1.6159    1.0110   -0.9470 C.3       1 <0>        -0.1452
     23 C16         0.8152   -0.2798   -0.6486 C.3       1 <0>        -0.1552
     24 C17        -0.4724    0.2233    0.0324 C.3       1 <0>         0.0443
     25 O1         -0.4090    1.6591    0.0583 O.3       1 <0>        -0.3597
     26 C18         3.0169    7.1879    1.0131 C.3       1 <0>        -0.0064
     27 C19         3.4226    8.6067    1.4182 C.3       1 <0>        -0.1449
     28 C20         4.8754    8.5983    1.9020 C.3       1 <0>        -0.1304
     29 C21         5.0100    7.6169    3.0693 C.3       1 <0>        -0.0716
     30 C22         4.5591    6.2267    2.6165 C.3       1 <0>         0.0076
     31 C23         4.1327    8.0849    4.2319 C.3       1 <0>        -0.1210
     32 C24         4.5819    9.4770    4.6808 C.3       1 <0>        -0.1198
     33 C25         6.0422    9.4201    5.1335 C.3       1 <0>        -0.1254
     34 C26         6.9194    8.9516    3.9708 C.3       1 <0>        -0.1217
     35 C27         6.4701    7.5597    3.5215 C.3       1 <0>        -0.1046
     36 O2          1.9539    5.7508    4.4608 O.3       1 <0>        -0.4905
     37 H3          3.6856    2.7296    8.2646 H         1 <0>         0.0799
     38 H4          2.0179    2.9345    7.6772 H         1 <0>         0.0807
     39 H5          2.5156    1.3978    8.4249 H         1 <0>         0.0753
     40 H6          3.8777   -0.1654    7.2082 H         1 <0>         0.1437
     41 H7          4.5592   -1.0536    5.0209 H         1 <0>         0.1416
     42 H8          4.3262    0.2930    3.0016 H         1 <0>         0.1398
     43 H9          3.6374    2.4348    1.9210 H         1 <0>         0.1554
     44 H10         2.2360    3.6741   -0.5412 H         1 <0>         0.1264
     45 H11         0.6936    3.5645   -1.4229 H         1 <0>         0.1394
     46 H12         2.6764    0.8676   -0.7397 H         1 <0>         0.0904
     47 H13         1.4630    1.3343   -1.9767 H         1 <0>         0.0911
     48 H14         1.3746   -0.9287    0.0253 H         1 <0>         0.0820
     49 H15         0.5772   -0.8059   -1.5731 H         1 <0>         0.0896
     50 H16        -0.5291   -0.1636    1.0498 H         1 <0>         0.0637
     51 H17        -1.3450   -0.0989   -0.5357 H         1 <0>         0.0961
     52 H18         3.6572    6.8453    0.2003 H         1 <0>         0.1317
     53 H19         1.9785    7.1880    0.6820 H         1 <0>         0.1178
     54 H20         3.3289    9.2713    0.5593 H         1 <0>         0.1153
     55 H21         2.7731    8.9558    2.2210 H         1 <0>         0.0928
     56 H22         5.5290    8.2871    1.0871 H         1 <0>         0.0831
     57 H23         5.1554    9.5988    2.2317 H         1 <0>         0.1037
     58 H24         4.6407    5.5290    3.4499 H         1 <0>         0.1256
     59 H25         5.1925    5.8886    1.7964 H         1 <0>         0.1318
     60 H26         3.0925    8.1253    3.9088 H         1 <0>         0.0596
     61 H27         4.2283    7.3865    5.0633 H         1 <0>         0.0810
     62 H28         3.9573    9.8106    5.5095 H         1 <0>         0.0729
     63 H29         4.4861   10.1754    3.8495 H         1 <0>         0.0690
     64 H30         6.1379    8.7218    5.9650 H         1 <0>         0.0657
     65 H31         6.3622   10.4117    5.4534 H         1 <0>         0.0705
     66 H32         7.9597    8.9110    4.2938 H         1 <0>         0.0730
     67 H33         6.8242    9.6501    3.1394 H         1 <0>         0.0694
     68 H34         6.5660    6.8610    4.3526 H         1 <0>         0.0733
     69 H35         7.0945    7.2262    2.6926 H         1 <0>         0.0733
     70 H36         0.9911    5.7935    4.3811 H         1 <0>         0.4228
     71 N6          3.1464    6.2976    2.1864 N.4       1 <0>        -0.3853
     72 H37         2.5826    6.6769    2.9561 H         1 <0>         0.4403
@<TRIPOS>BOND
     1    1    2 1
     2    1   37 1
     3    1   38 1
     4    1   39 1
     5    2    7 ar
     6    2    3 ar
     7    3    4 ar
     8    3   40 1
     9    4    5 ar
    10    4   41 1
    11    5    6 ar
    12    5   42 1
    13    6   11 ar
    14    6    7 ar
    15    7    8 ar
    16    8    9 ar
    17    9   10 ar
    18    9   36 1
    19   10   11 ar
    20   10   12 1
    21   11   43 1
    22   12   13 1
    23   12   14 1
    24   12   71 1
    25   14   18 1
    26   14   15 2
    27   15   16 1
    28   16   17 2
    29   17   18 1
    30   18   19 1
    31   19   20 1
    32   19   44 1
    33   19   45 1
    34   20   21 1
    35   20   25 1
    36   20   22 1
    37   22   23 1
    38   22   46 1
    39   22   47 1
    40   23   24 1
    41   23   48 1
    42   23   49 1
    43   24   25 1
    44   24   50 1
    45   24   51 1
    46   26   27 1
    47   26   52 1
    48   26   53 1
    49   26   71 1
    50   27   28 1
    51   27   54 1
    52   27   55 1
    53   28   29 1
    54   28   56 1
    55   28   57 1
    56   29   35 1
    57   29   30 1
    58   29   31 1
    59   30   58 1
    60   30   59 1
    61   30   71 1
    62   31   32 1
    63   31   60 1
    64   31   61 1
    65   32   33 1
    66   32   62 1
    67   32   63 1
    68   33   34 1
    69   33   64 1
    70   33   65 1
    71   34   35 1
    72   34   66 1
    73   34   67 1
    74   35   68 1
    75   35   69 1
    76   36   70 1
    77   71   72 1
@<TRIPOS>MOLECULE
ZINC34792063
   66    69     0     0     0
SMALL
USER_CHARGES

@<TRIPOS>ATOM
      1 C1         -0.0178    1.4608    0.0101 C.3       1 <0>         0.0620
      2 N1          0.0021   -0.0041    0.0020 N.am      1 <0>        -0.5265
      3 C2         -1.1926   -0.6659    0.0043 C.2       1 <0>         0.1863
      4 C3         -1.2451   -2.0133   -0.0032 C.2       1 <0>        -0.2841
      5 C4          0.0680   -2.7695   -0.0143 C.3       1 <0>         0.2583
      6 H1          0.0815   -3.4067   -0.8986 H         1 <0>         0.0946
      7 N2          1.3010   -1.9643   -0.0159 N.am      1 <0>        -0.7099
      8 C5          1.1908   -0.6210   -0.0126 C.2       1 <0>         0.7096
      9 O1          2.2029    0.0522   -0.0183 O.2       1 <0>        -0.5481
     10 C6          0.0995   -3.6638    1.1983 C.ar      1 <0>        -0.1207
     11 C7          0.4235   -3.1388    2.4354 C.ar      1 <0>        -0.0670
     12 C8          0.4522   -3.9578    3.5482 C.ar      1 <0>        -0.1548
     13 C9          0.1564   -5.3046    3.4237 C.ar      1 <0>         0.1073
     14 C10        -0.1680   -5.8293    2.1841 C.ar      1 <0>        -0.1536
     15 C11        -0.2012   -5.0073    1.0736 C.ar      1 <0>        -0.0568
     16 F1          0.1846   -6.1063    4.5107 F         1 <0>        -0.1371
     17 C12        -2.5851   -2.4518    0.0015 C.2       1 <0>         0.5932
     18 O2         -2.9266   -3.6204   -0.0030 O.2       1 <0>        -0.5222
     19 N3         -3.4371   -1.4107    0.0121 N.am      1 <0>        -0.6114
     20 C13        -2.6260   -0.1842    0.0148 C.3       1 <0>         0.1454
     21 C14        -4.9001   -1.4851    0.0192 C.3       1 <0>         0.1276
     22 C15        -5.3945   -1.5186    1.4424 C.2       1 <0>         0.4908
     23 O3         -4.6027   -1.4837    2.3604 O.2       1 <0>        -0.4855
     24 N4         -6.7166   -1.5873    1.6951 N.am      1 <0>        -0.6064
     25 C16        -7.6731   -1.6294    0.5862 C.3       1 <0>         0.0835
     26 C17        -7.9328   -3.0847    0.1917 C.3       1 <0>        -0.0411
     27 N5         -8.8919   -3.1269   -0.9202 N.4       1 <0>        -0.3836
     28 C18        -9.0503   -4.5138   -1.3778 C.3       1 <0>        -0.0479
     29 C19       -10.1900   -2.6095   -0.4671 C.3       1 <0>        -0.0550
     30 C20        -7.1973   -1.6198    3.0786 C.3       1 <0>         0.1548
     31 C21        -7.4342   -0.2120    3.5613 C.ar      1 <0>        -0.1208
     32 C22        -6.4119    0.4908    4.1712 C.ar      1 <0>        -0.0933
     33 C23        -6.6292    1.7822    4.6140 C.ar      1 <0>        -0.1173
     34 C24        -7.8687    2.3709    4.4465 C.ar      1 <0>        -0.1066
     35 C25        -8.8907    1.6684    3.8358 C.ar      1 <0>        -0.1216
     36 C26        -8.6721    0.3786    3.3891 C.ar      1 <0>        -0.1106
     37 H2          1.0048    1.8381    0.0023 H         1 <0>         0.1111
     38 H3         -0.5450    1.8219   -0.8730 H         1 <0>         0.0783
     39 H4         -0.5280    1.8123    0.9069 H         1 <0>         0.0780
     40 H5          2.1722   -2.3907   -0.0228 H         1 <0>         0.4383
     41 H6          0.6546   -2.0882    2.5323 H         1 <0>         0.1222
     42 H7          0.7057   -3.5475    4.5145 H         1 <0>         0.1360
     43 H8         -0.3987   -6.8798    2.0857 H         1 <0>         0.1377
     44 H9         -0.4586   -5.4155    0.1074 H         1 <0>         0.1352
     45 H10        -2.8234    0.3989    0.9144 H         1 <0>         0.1144
     46 H11        -2.8331    0.4093   -0.8757 H         1 <0>         0.1157
     47 H12        -5.3108   -0.6119   -0.4876 H         1 <0>         0.1159
     48 H13        -5.2205   -2.3895   -0.4980 H         1 <0>         0.1122
     49 H14        -8.6090   -1.1643    0.8958 H         1 <0>         0.1074
     50 H15        -7.2638   -1.0891   -0.2674 H         1 <0>         0.1016
     51 H16        -6.9969   -3.5498   -0.1178 H         1 <0>         0.1358
     52 H17        -8.3422   -3.6250    1.0453 H         1 <0>         0.1378
     53 H18        -9.4194   -5.1276   -0.5561 H         1 <0>         0.1234
     54 H19        -9.7620   -4.5452   -2.2028 H         1 <0>         0.1277
     55 H20        -8.0872   -4.8978   -1.7139 H         1 <0>         0.1256
     56 H21       -10.9016   -2.6408   -1.2922 H         1 <0>         0.1284
     57 H22       -10.5590   -3.2232    0.3546 H         1 <0>         0.1247
     58 H23       -10.0724   -1.5804   -0.1276 H         1 <0>         0.1240
     59 H24        -8.1299   -2.1820    3.1261 H         1 <0>         0.0880
     60 H25        -6.4509   -2.1001    3.7113 H         1 <0>         0.1017
     61 H26        -5.4436    0.0308    4.3021 H         1 <0>         0.1275
     62 H27        -5.8308    2.3310    5.0911 H         1 <0>         0.1259
     63 H28        -8.0387    3.3796    4.7930 H         1 <0>         0.1263
     64 H29        -9.8591    2.1283    3.7052 H         1 <0>         0.1248
     65 H30        -9.4695   -0.1689    2.9086 H         1 <0>         0.1151
     66 H31        -8.5503   -2.5587   -1.6808 H         1 <0>         0.4277
@<TRIPOS>BOND
     1    1    2 1
     2    1   37 1
     3    1   38 1
     4    1   39 1
     5    2    8 am
     6    2    3 1
     7    3   20 1
     8    3    4 2
     9    4    5 1
    10    4   17 1
    11    5    6 1
    12    5    7 1
    13    5   10 1
    14    7    8 am
    15    7   40 1
    16    8    9 2
    17   10   15 ar
    18   10   11 ar
    19   11   12 ar
    20   11   41 1
    21   12   13 ar
    22   12   42 1
    23   13   14 ar
    24   13   16 1
    25   14   15 ar
    26   14   43 1
    27   15   44 1
    28   17   18 2
    29   17   19 am
    30   19   20 1
    31   19   21 1
    32   20   45 1
    33   20   46 1
    34   21   22 1
    35   21   47 1
    36   21   48 1
    37   22   23 2
    38   22   24 am
    39   24   25 1
    40   24   30 1
    41   25   26 1
    42   25   49 1
    43   25   50 1
    44   26   27 1
    45   26   51 1
    46   26   52 1
    47   27   28 1
    48   27   29 1
    49   27   66 1
    50   28   53 1
    51   28   54 1
    52   28   55 1
    53   29   56 1
    54   29   57 1
    55   29   58 1
    56   30   31 1
    57   30   59 1
    58   30   60 1
    59   31   36 ar
    60   31   32 ar
    61   32   33 ar
    62   32   61 1
    63   33   34 ar
    64   33   62 1
    65   34   35 ar
    66   34   63 1
    67   35   36 ar
    68   35   64 1
    69   36   65 1
@<TRIPOS>MOLECULE
ZINC60339772
   77    80     0     0     0
SMALL
USER_CHARGES

@<TRIPOS>ATOM
      1 C1          0.6331    2.6947   -2.8068 C.3       1 <0>        -0.1865
      2 C2          0.4927    1.1718   -2.7615 C.3       1 <0>         0.1350
      3 C3          0.8867    0.6644   -1.3729 C.3       1 <0>        -0.1849
      4 C4         -0.9584    0.7846   -3.0533 C.3       1 <0>        -0.1436
      5 O1          1.3490    0.5851   -3.7437 O.3       1 <0>        -0.3522
      6 C5          2.6679    0.8303   -3.6297 C.2       1 <0>         0.6530
      7 O2          3.0807    1.5235   -2.7211 O.2       1 <0>        -0.5591
      8 N1          3.5304    0.3068   -4.5233 N.am      1 <0>        -0.6018
      9 C6          3.0327   -0.5290   -5.6188 C.3       1 <0>         0.0784
     10 C7          4.9655    0.5737   -4.3993 C.3       1 <0>         0.1407
     11 C8          5.6115   -0.5056   -3.5282 C.3       1 <0>        -0.1296
     12 H1          5.3867   -1.4892   -3.9408 H         1 <0>         0.0971
     13 C9          5.0594   -0.4107   -2.1029 C.3       1 <0>        -0.1257
     14 C10         5.7689   -1.4426   -1.2214 C.3       1 <0>        -0.1403
     15 C11         7.2787   -1.2000   -1.2759 C.3       1 <0>        -0.0172
     16 N2          7.7493   -1.3306   -2.6601 N.4       1 <0>        -0.3666
     17 C12         7.1273   -0.2984   -3.4981 C.3       1 <0>        -0.0015
     18 C13         9.2095   -1.1741   -2.6961 C.3       1 <0>        -0.0344
     19 C14         9.8552   -2.3104   -1.9459 C.2       1 <0>         0.4993
     20 O3          9.1668   -3.1664   -1.4318 O.2       1 <0>        -0.5080
     21 N3         11.1977   -2.3755   -1.8462 N.am      1 <0>        -0.6957
     22 C15        11.8217   -3.4173   -1.0268 C.3       1 <0>         0.2214
     23 C16        13.3387   -3.1614   -0.9120 C.3       1 <0>        -0.1225
     24 C17        13.4945   -2.3954    0.4252 C.3       1 <0>        -0.1259
     25 C18        12.4527   -3.0875    1.3389 C.3       1 <0>        -0.1302
     26 C19        11.2584   -3.3703    0.4043 C.3       1 <0>        -0.1191
     27 C20        11.5705   -4.7725   -1.6363 C.ar      1 <0>        -0.0814
     28 C21        11.6840   -5.9103   -0.8592 C.ar      1 <0>        -0.1017
     29 C22        11.4557   -7.1549   -1.4148 C.ar      1 <0>        -0.1053
     30 C23        11.1116   -7.2656   -2.7539 C.ar      1 <0>         0.0560
     31 C24        10.9951   -6.1217   -3.5344 C.ar      1 <0>         0.0528
     32 C25        11.2215   -4.8753   -2.9695 C.ar      1 <0>        -0.1052
     33 O4         10.6509   -6.2071   -4.8484 O.3       1 <0>        -0.3116
     34 C26        10.7907   -7.4902   -5.4682 C.3       1 <0>         0.0202
     35 C27        10.1860   -8.5449   -4.5316 C.3       1 <0>         0.0201
     36 O5         10.8938   -8.4984   -3.2879 O.3       1 <0>        -0.3041
     37 H2          1.6670    2.9706   -2.5990 H         1 <0>         0.0858
     38 H3          0.3525    3.0562   -3.7961 H         1 <0>         0.0608
     39 H4         -0.0200    3.1422   -2.0577 H         1 <0>         0.0737
     40 H5          0.2336    1.1120   -0.6238 H         1 <0>         0.0739
     41 H6          0.7866   -0.4205   -1.3406 H         1 <0>         0.0584
     42 H7          1.9205    0.9403   -1.1651 H         1 <0>         0.0849
     43 H8         -1.2391    1.1460   -4.0425 H         1 <0>         0.0688
     44 H9         -1.0585   -0.3004   -3.0210 H         1 <0>         0.0673
     45 H10        -1.6115    1.2321   -2.3041 H         1 <0>         0.0844
     46 H11         2.8050    0.0988   -6.4802 H         1 <0>         0.0646
     47 H12         3.7936   -1.2598   -5.8927 H         1 <0>         0.0731
     48 H13         2.1293   -1.0478   -5.2983 H         1 <0>         0.0830
     49 H14         5.4236    0.5647   -5.3883 H         1 <0>         0.0952
     50 H15         5.1150    1.5501   -3.9385 H         1 <0>         0.1002
     51 H16         5.2381    0.5897   -1.7087 H         1 <0>         0.0907
     52 H17         3.9886   -0.6141   -2.1125 H         1 <0>         0.0884
     53 H18         5.4211   -1.3435   -0.1932 H         1 <0>         0.1113
     54 H19         5.5480   -2.4459   -1.5859 H         1 <0>         0.0851
     55 H20         7.4984   -0.1967   -0.9110 H         1 <0>         0.1251
     56 H21         7.7868   -1.9330   -0.6492 H         1 <0>         0.1469
     57 H22         7.5230   -0.3657   -4.5115 H         1 <0>         0.1338
     58 H23         7.3509    0.6857   -3.0863 H         1 <0>         0.1349
     59 H24         9.5503   -1.1821   -3.7314 H         1 <0>         0.1587
     60 H25         9.4851   -0.2280   -2.2302 H         1 <0>         0.1599
     61 H26        11.7507   -1.7325   -2.3170 H         1 <0>         0.4102
     62 H27        13.8832   -4.1050   -0.8768 H         1 <0>         0.0933
     63 H28        13.6865   -2.5500   -1.7446 H         1 <0>         0.0785
     64 H29        14.5010   -2.5177    0.8254 H         1 <0>         0.0787
     65 H30        13.2545   -1.3400    0.2961 H         1 <0>         0.0692
     66 H31        12.8541   -4.0191    1.7376 H         1 <0>         0.0743
     67 H32        12.1540   -2.4221    2.1490 H         1 <0>         0.0729
     68 H33        10.5207   -2.5723    0.4892 H         1 <0>         0.0689
     69 H34        10.8041   -4.3280    0.6584 H         1 <0>         0.0854
     70 H35        11.9519   -5.8264    0.1837 H         1 <0>         0.1362
     71 H36        11.5457   -8.0423   -0.8058 H         1 <0>         0.1399
     72 H37        11.1292   -3.9846   -3.5732 H         1 <0>         0.1215
     73 H38        10.2611   -7.4978   -6.4209 H         1 <0>         0.1257
     74 H39        11.8464   -7.7062   -5.6321 H         1 <0>         0.0814
     75 H40         9.1317   -8.3255   -4.3629 H         1 <0>         0.0783
     76 H41        10.2895   -9.5344   -4.9768 H         1 <0>         0.1273
     77 H42         7.5020   -2.2427   -3.0137 H         1 <0>         0.4289
@<TRIPOS>BOND
     1    1    2 1
     2    1   37 1
     3    1   38 1
     4    1   39 1
     5    2    3 1
     6    2    4 1
     7    2    5 1
     8    3   40 1
     9    3   41 1
    10    3   42 1
    11    4   43 1
    12    4   44 1
    13    4   45 1
    14    5    6 1
    15    6    7 2
    16    6    8 am
    17    8    9 1
    18    8   10 1
    19    9   46 1
    20    9   47 1
    21    9   48 1
    22   10   11 1
    23   10   49 1
    24   10   50 1
    25   11   12 1
    26   11   17 1
    27   11   13 1
    28   13   14 1
    29   13   51 1
    30   13   52 1
    31   14   15 1
    32   14   53 1
    33   14   54 1
    34   15   16 1
    35   15   55 1
    36   15   56 1
    37   16   17 1
    38   16   18 1
    39   16   77 1
    40   17   57 1
    41   17   58 1
    42   18   19 1
    43   18   59 1
    44   18   60 1
    45   19   20 2
    46   19   21 am
    47   21   22 1
    48   21   61 1
    49   22   26 1
    50   22   23 1
    51   22   27 1
    52   23   24 1
    53   23   62 1
    54   23   63 1
    55   24   25 1
    56   24   64 1
    57   24   65 1
    58   25   26 1
    59   25   66 1
    60   25   67 1
    61   26   68 1
    62   26   69 1
    63   27   32 ar
    64   27   28 ar
    65   28   29 ar
    66   28   70 1
    67   29   30 ar
    68   29   71 1
    69   30   36 1
    70   30   31 ar
    71   31   32 ar
    72   31   33 1
    73   32   72 1
    74   33   34 1
    75   34   35 1
    76   34   73 1
    77   34   74 1
    78   35   36 1
    79   35   75 1
    80   35   76 1
@<TRIPOS>MOLECULE
ZINC02085337
   54    54     0     0     0
SMALL
USER_CHARGES
2-[(2,3-dimethylphenyl)-methylsulfonyl-amino]-N-(1-isopropyl-2-methyl-propyl)-acetamide
@<TRIPOS>ATOM
      1 C1          0.3116   -1.3343    1.8092 C.3       1 <0>        -0.1167
      2 C2          1.2241   -0.2329    1.3346 C.ar      1 <0>        -0.0842
      3 C3          2.5921   -0.4342    1.3040 C.ar      1 <0>        -0.1044
      4 C4          3.4328    0.5737    0.8692 C.ar      1 <0>        -0.1165
      5 C5          2.9086    1.7853    0.4630 C.ar      1 <0>        -0.0883
      6 C6          1.5352    1.9907    0.4920 C.ar      1 <0>         0.1349
      7 C7          0.6934    0.9761    0.9303 C.ar      1 <0>        -0.0850
      8 C8         -0.7974    1.1944    0.9635 C.3       1 <0>        -0.1345
      9 N1          1.0018    3.2148    0.0824 N.pl3     1 <0>        -0.9306
     10 C9          0.8608    4.3110    1.0440 C.3       1 <0>         0.1039
     11 C10         2.1574    5.0743    1.1293 C.2       1 <0>         0.4989
     12 O1          3.0708    4.8038    0.3787 O.2       1 <0>        -0.5114
     13 N2          2.3019    6.0576    2.0396 N.am      1 <0>        -0.7220
     14 C11         3.5624    6.7996    2.1225 C.3       1 <0>         0.1566
     15 C12         3.5488    7.9430    1.1060 C.3       1 <0>        -0.1104
     16 C13         3.5428    7.3657   -0.3109 C.3       1 <0>        -0.1417
     17 C14         2.2959    8.7960    1.3144 C.3       1 <0>        -0.1459
     18 C15         3.7254    7.3721    3.5319 C.3       1 <0>        -0.1043
     19 C16         3.7701    6.2270    4.5456 C.3       1 <0>        -0.1466
     20 C17         5.0266    8.1731    3.6097 C.3       1 <0>        -0.1474
     21 S1          0.5287    3.4271   -1.4904 S.o2      1 <0>         2.5998
     22 O2          0.7916    4.7960   -1.7665 O.2       1 <0>        -0.9380
     23 O3          1.1970    2.4012   -2.2116 O.2       1 <0>        -0.9347
     24 C18        -1.2597    3.1232   -1.4842 C.3       1 <0>        -0.6866
     25 H1          0.1652   -1.2463    2.8857 H         1 <0>         0.0714
     26 H2         -0.6506   -1.2522    1.3037 H         1 <0>         0.0696
     27 H3          0.7603   -2.3013    1.5814 H         1 <0>         0.0679
     28 H4          3.0046   -1.3808    1.6208 H         1 <0>         0.1252
     29 H5          4.5006    0.4133    0.8469 H         1 <0>         0.1266
     30 H6          3.5661    2.5736    0.1274 H         1 <0>         0.1395
     31 H7         -1.1021    1.4683    1.9736 H         1 <0>         0.0783
     32 H8         -1.0626    1.9959    0.2740 H         1 <0>         0.0638
     33 H9         -1.3056    0.2769    0.6669 H         1 <0>         0.0770
     34 H10         0.0656    4.9810    0.7172 H         1 <0>         0.1114
     35 H11         0.6134    3.9045    2.0246 H         1 <0>         0.1115
     36 H12         1.5714    6.2739    2.6399 H         1 <0>         0.3978
     37 H13         4.3937    6.1292    1.9042 H         1 <0>         0.0888
     38 H14         4.4361    8.5612    1.2427 H         1 <0>         0.0791
     39 H15         2.6012    6.8458   -0.4875 H         1 <0>         0.0622
     40 H16         3.6522    8.1746   -1.0333 H         1 <0>         0.0435
     41 H17         4.3708    6.6654   -0.4215 H         1 <0>         0.0593
     42 H18         2.3001    9.2073    2.3239 H         1 <0>         0.0535
     43 H19         2.2862    9.6106    0.5902 H         1 <0>         0.0534
     44 H20         1.4086    8.1778    1.1777 H         1 <0>         0.0541
     45 H21         2.8826    8.0252    3.7585 H         1 <0>         0.0772
     46 H22         3.8863    6.6349    5.5497 H         1 <0>         0.0564
     47 H23         2.8431    5.6563    4.4902 H         1 <0>         0.0541
     48 H24         4.6129    5.5739    4.3190 H         1 <0>         0.0552
     49 H25         4.9489    9.0552    2.9740 H         1 <0>         0.0608
     50 H26         5.2020    8.4822    4.6401 H         1 <0>         0.0590
     51 H27         5.8561    7.5527    3.2702 H         1 <0>         0.0575
     52 H28        -1.7234    3.6991   -0.6833 H         1 <0>         0.1305
     53 H29        -1.6830    3.4264   -2.4418 H         1 <0>         0.1338
     54 H30        -1.4473    2.0615   -1.3239 H         1 <0>         0.1368
@<TRIPOS>BOND
     1    1    2 1
     2    1   25 1
     3    1   26 1
     4    1   27 1
     5    2    7 ar
     6    2    3 ar
     7    3    4 ar
     8    3   28 1
     9    4    5 ar
    10    4   29 1
    11    5    6 ar
    12    5   30 1
    13    6    7 ar
    14    6    9 1
    15    7    8 1
    16    8   31 1
    17    8   32 1
    18    8   33 1
    19    9   10 1
    20    9   21 1
    21   10   11 1
    22   10   34 1
    23   10   35 1
    24   11   12 2
    25   11   13 am
    26   13   14 1
    27   13   36 1
    28   14   15 1
    29   14   18 1
    30   14   37 1
    31   15   16 1
    32   15   17 1
    33   15   38 1
    34   16   39 1
    35   16   40 1
    36   16   41 1
    37   17   42 1
    38   17   43 1
    39   17   44 1
    40   18   19 1
    41   18   20 1
    42   18   45 1
    43   19   46 1
    44   19   47 1
    45   19   48 1
    46   20   49 1
    47   20   50 1
    48   20   51 1
    49   21   22 2
    50   21   23 2
    51   21   24 1
    52   24   52 1
    53   24   53 1
    54   24   54 1
@<TRIPOS>MOLECULE
ZINC12120068
   52    53     0     0     0
SMALL
USER_CHARGES
3-methyl-N-[(2R)-2-methyl-3-oxo-4-pentyl-1,4-benzoxazin-6-yl]butanamide
@<TRIPOS>ATOM
      1 C1         -7.8338    6.9498    5.7396 C.3       1 <0>        -0.1537
      2 C2         -8.0754    5.7480    4.8240 C.3       1 <0>        -0.1242
      3 C3         -7.4705    4.4939    5.4582 C.3       1 <0>        -0.1160
      4 C4         -7.7122    3.2921    4.5426 C.3       1 <0>        -0.1343
      5 C5         -7.1073    2.0380    5.1768 C.3       1 <0>         0.1069
      6 N1         -7.3387    0.8873    4.3001 N.am      1 <0>        -0.5498
      7 C6         -6.4053    0.5477    3.3104 C.ar      1 <0>         0.1189
      8 C7         -5.1241    1.0718    3.3379 C.ar      1 <0>        -0.1539
      9 C8         -4.2151    0.7230    2.3479 C.ar      1 <0>         0.1588
     10 C9         -4.5929   -0.1445    1.3314 C.ar      1 <0>        -0.1116
     11 C10        -5.8706   -0.6718    1.3067 C.ar      1 <0>        -0.0843
     12 C11        -6.7799   -0.3272    2.2916 C.ar      1 <0>         0.0631
     13 O1         -8.0420   -0.8356    2.2771 O.3       1 <0>        -0.2990
     14 C12        -8.6569   -1.0655    3.5475 C.3       1 <0>         0.0779
     15 H1         -8.2065   -1.9408    4.0155 H         1 <0>         0.1037
     16 C13        -8.4542    0.1373    4.4334 C.2       1 <0>         0.4913
     17 O2         -9.2894    0.4303    5.2628 O.2       1 <0>        -0.4997
     18 C14       -10.1549   -1.3074    3.3519 C.3       1 <0>        -0.1352
     19 N2         -2.9177    1.2511    2.3713 N.am      1 <0>        -0.6757
     20 C15        -1.8819    0.5139    1.9239 C.2       1 <0>         0.5135
     21 O3         -2.0573   -0.6391    1.5907 O.2       1 <0>        -0.5101
     22 C16        -0.5058    1.1221    1.8377 C.3       1 <0>        -0.1366
     23 C17         0.4795    0.0808    1.3033 C.3       1 <0>        -0.0817
     24 C18         1.8966    0.6570    1.3329 C.3       1 <0>        -0.1496
     25 C19         0.1069   -0.2828   -0.1354 C.3       1 <0>        -0.1555
     26 H2         -6.7619    7.0926    5.8763 H         1 <0>         0.0537
     27 H3         -8.2647    7.8432    5.2878 H         1 <0>         0.0547
     28 H4         -8.3026    6.7696    6.7070 H         1 <0>         0.0544
     29 H5         -7.6066    5.9282    3.8566 H         1 <0>         0.0612
     30 H6         -9.1474    5.6051    4.6873 H         1 <0>         0.0618
     31 H7         -7.9393    4.3137    6.4256 H         1 <0>         0.0658
     32 H8         -6.3986    4.6368    5.5949 H         1 <0>         0.0637
     33 H9         -7.2434    3.4723    3.5752 H         1 <0>         0.0669
     34 H10        -8.7841    3.1493    4.4059 H         1 <0>         0.0690
     35 H11        -7.5761    1.8578    6.1442 H         1 <0>         0.0936
     36 H12        -6.0354    2.1809    5.3135 H         1 <0>         0.0861
     37 H13        -4.8329    1.7499    4.1264 H         1 <0>         0.1369
     38 H14        -3.8853   -0.4110    0.5602 H         1 <0>         0.1457
     39 H15        -6.1603   -1.3493    0.5171 H         1 <0>         0.1445
     40 H16       -10.6065   -0.4319    2.8852 H         1 <0>         0.0708
     41 H17       -10.3020   -2.1770    2.7114 H         1 <0>         0.0815
     42 H18       -10.6236   -1.4856    4.3198 H         1 <0>         0.0920
     43 H19        -2.7648    2.1473    2.7095 H         1 <0>         0.4122
     44 H20        -0.1893    1.4467    2.8289 H         1 <0>         0.0970
     45 H21        -0.5289    1.9794    1.1649 H         1 <0>         0.0989
     46 H22         0.4375   -0.8126    1.9263 H         1 <0>         0.0790
     47 H23         1.9386    1.5504    0.7099 H         1 <0>         0.0559
     48 H24         2.1621    0.9161    2.3579 H         1 <0>         0.0552
     49 H25         2.5985   -0.0849    0.9522 H         1 <0>         0.0601
     50 H26         0.1489    0.6105   -0.7585 H         1 <0>         0.0490
     51 H27         0.8088   -1.0247   -0.5161 H         1 <0>         0.0549
     52 H28        -0.9027   -0.6934   -0.1565 H         1 <0>         0.0723
@<TRIPOS>BOND
     1    1    2 1
     2    1   26 1
     3    1   27 1
     4    1   28 1
     5    2    3 1
     6    2   29 1
     7    2   30 1
     8    3    4 1
     9    3   31 1
    10    3   32 1
    11    4    5 1
    12    4   33 1
    13    4   34 1
    14    5    6 1
    15    5   35 1
    16    5   36 1
    17    6   16 am
    18    6    7 1
    19    7   12 ar
    20    7    8 ar
    21    8    9 ar
    22    8   37 1
    23    9   10 ar
    24    9   19 1
    25   10   11 ar
    26   10   38 1
    27   11   12 ar
    28   11   39 1
    29   12   13 1
    30   13   14 1
    31   14   15 1
    32   14   16 1
    33   14   18 1
    34   16   17 2
    35   18   40 1
    36   18   41 1
    37   18   42 1
    38   19   20 am
    39   19   43 1
    40   20   21 2
    41   20   22 1
    42   22   23 1
    43   22   44 1
    44   22   45 1
    45   23   24 1
    46   23   25 1
    47   23   46 1
    48   24   47 1
    49   24   48 1
    50   24   49 1
    51   25   50 1
    52   25   51 1
    53   25   52 1
@<TRIPOS>MOLECULE
ZINC28537648
   44    46     0     0     0
SMALL
USER_CHARGES
2-[(1-ethyl-5-phenoxy-6H-1,2,4-triazin-3-yl)sulfanyl]-1-phenyl-ethanone
@<TRIPOS>ATOM
      1 C1         -0.0860    1.4319   -0.0463 C.3       1 <0>        -0.1741
      2 C2         -0.0152   -0.0964   -0.0323 C.3       1 <0>         0.1754
      3 N1          0.6973   -0.5632   -1.2242 N.pl3     1 <0>        -0.4995
      4 C3          2.1585   -0.7452   -1.2210 C.2       1 <0>        -0.1312
      5 C4          2.6924   -0.2626   -2.5445 C.2       1 <0>         0.2952
      6 N2          1.9306   -0.2703   -3.5966 N.pl3     1 <0>        -0.6533
      7 C5          0.6432   -0.7041   -3.5543 C.2       1 <0>         0.2799
      8 N3          0.0133   -0.8503   -2.4209 N.2       1 <0>        -0.2735
      9 S1         -0.1919   -1.0772   -5.0603 S.3       1 <0>         0.0161
     10 C6         -1.8433   -1.6057   -4.5271 C.3       1 <0>        -0.1582
     11 C7         -2.6721   -1.9589   -5.7352 C.2       1 <0>         0.4174
     12 O1         -2.1957   -1.8635   -6.8462 O.2       1 <0>        -0.4330
     13 C8         -4.0595   -2.4196   -5.5665 C.ar      1 <0>        -0.1662
     14 C9         -4.6107   -2.5364   -4.2865 C.ar      1 <0>        -0.0710
     15 C10        -5.9134   -2.9628   -4.1371 C.ar      1 <0>        -0.1315
     16 C11        -6.6713   -3.2863   -5.2491 C.ar      1 <0>        -0.0829
     17 C12        -6.1311   -3.1792   -6.5188 C.ar      1 <0>        -0.1317
     18 C13        -4.8319   -2.7484   -6.6851 C.ar      1 <0>        -0.0563
     19 O2          3.9626    0.1815   -2.6358 O.3       1 <0>        -0.2384
     20 C14         4.4135    0.5106   -3.8748 C.ar      1 <0>         0.0496
     21 C15         5.2605   -0.3507   -4.5575 C.ar      1 <0>        -0.1160
     22 C16         5.7140   -0.0157   -5.8186 C.ar      1 <0>        -0.1026
     23 C17         5.3325    1.1811   -6.3965 C.ar      1 <0>        -0.1089
     24 C18         4.4924    2.0433   -5.7163 C.ar      1 <0>        -0.1025
     25 C19         4.0322    1.7110   -4.4570 C.ar      1 <0>        -0.1364
     26 H1         -0.6210    1.7824    0.8487 H         1 <0>         0.0622
     27 H2         -0.6209    1.7659   -0.9476 H         1 <0>         0.0489
     28 H3          0.9330    1.8461   -0.0501 H         1 <0>         0.0560
     29 H4          0.5197   -0.4304    0.8690 H         1 <0>         0.0754
     30 H5         -1.0342   -0.5107   -0.0285 H         1 <0>         0.0691
     31 H6          2.8478   -1.1448   -0.4626 H         1 <0>         0.1884
     32 H7         -1.7534   -2.4862   -3.8739 H         1 <0>         0.1333
     33 H8         -2.3296   -0.7879   -3.9751 H         1 <0>         0.1336
     34 H9         -4.0190   -2.2887   -3.4176 H         1 <0>         0.1340
     35 H10        -6.3419   -3.0493   -3.1495 H         1 <0>         0.1319
     36 H11        -7.6898   -3.6237   -5.1253 H         1 <0>         0.1298
     37 H12        -6.7289   -3.4334   -7.3816 H         1 <0>         0.1320
     38 H13        -4.4117   -2.6653   -7.6766 H         1 <0>         0.1360
     39 H14         5.5623   -1.2836   -4.1048 H         1 <0>         0.1349
     40 H15         6.3703   -0.6874   -6.3520 H         1 <0>         0.1356
     41 H16         5.6912    1.4428   -7.3811 H         1 <0>         0.1335
     42 H17         4.1959    2.9776   -6.1699 H         1 <0>         0.1355
     43 H18         3.3766    2.3851   -3.9258 H         1 <0>         0.1333
     44 H19         2.3226    0.0820   -4.5621 H         1 <0>         0.4303
@<TRIPOS>BOND
     1    1    2 1
     2    1   26 1
     3    1   27 1
     4    1   28 1
     5    2    3 1
     6    2   29 1
     7    2   30 1
     8    3    8 1
     9    3    4 1
    10    4    5 2
    11    4   31 1
    12    5    6 1
    13    5   19 1
    14    6    7 1
    15    6   44 1
    16    7    8 2
    17    7    9 1
    18    9   10 1
    19   10   11 1
    20   10   32 1
    21   10   33 1
    22   11   12 2
    23   11   13 1
    24   13   18 ar
    25   13   14 ar
    26   14   15 ar
    27   14   34 1
    28   15   16 ar
    29   15   35 1
    30   16   17 ar
    31   16   36 1
    32   17   18 ar
    33   17   37 1
    34   18   38 1
    35   19   20 1
    36   20   25 ar
    37   20   21 ar
    38   21   22 ar
    39   21   39 1
    40   22   23 ar
    41   22   40 1
    42   23   24 ar
    43   23   41 1
    44   24   25 ar
    45   24   42 1
    46   25   43 1
@<TRIPOS>MOLECULE
ZINC44672461
   41    43     0     0     0
SMALL
USER_CHARGES

@<TRIPOS>ATOM
      1 C1         -4.1955   -2.8481   -0.0104 C.3       1 <0>         0.0338
      2 O1         -2.7667   -2.8244   -0.0048 O.3       1 <0>        -0.3478
      3 C2         -2.1489   -3.4377    1.0233 C.2       1 <0>         0.5087
      4 O2         -2.8051   -3.9778    1.8912 O.2       1 <0>        -0.4981
      5 C3         -0.6734   -3.4535    1.0951 C.ar      1 <0>        -0.1098
      6 C4          0.0834   -2.8284    0.1017 C.ar      1 <0>        -0.0598
      7 C5          1.4610   -2.8452    0.1721 C.ar      1 <0>        -0.1148
      8 C6          2.0964   -3.4794    1.2240 C.ar      1 <0>        -0.0813
      9 C7          1.3527   -4.1035    2.2163 C.ar      1 <0>         0.0778
     10 C8         -0.0308   -4.0880    2.1588 C.ar      1 <0>        -0.0621
     11 O3          1.9829   -4.7257    3.2476 O.3       1 <0>        -0.2944
     12 C9          1.9208   -6.0656    3.3080 C.2       1 <0>         0.4585
     13 O4          1.4081   -6.6878    2.4080 O.2       1 <0>        -0.4849
     14 C10         2.4905   -6.7934    4.4982 C.3       1 <0>        -0.1040
     15 C11         2.2915   -8.2997    4.3182 C.3       1 <0>        -0.0313
     16 C12         2.8612   -9.0275    5.5084 C.2       1 <0>        -0.1761
     17 C13         4.0909   -9.5566    5.6072 C.2       1 <0>         0.0616
     18 N1          4.2514  -10.1382    6.8353 N.pl3     1 <0>        -0.5947
     19 H1          5.0567  -10.5856    7.1391 H         1 <0>         0.4172
     20 C14         3.0996   -9.9938    7.5757 C.ar      1 <0>         0.0948
     21 C15         2.1804   -9.2862    6.7794 C.ar      1 <0>        -0.1012
     22 C16         0.9121   -8.9860    7.2794 C.ar      1 <0>        -0.0726
     23 C17         0.5707   -9.3785    8.5431 C.ar      1 <0>        -0.1440
     24 C18         1.4752  -10.0732    9.3341 C.ar      1 <0>        -0.0978
     25 C19         2.7290  -10.3880    8.8570 C.ar      1 <0>        -0.1302
     26 H2         -4.5705   -2.3606    0.8895 H         1 <0>         0.0632
     27 H3         -4.5642   -2.3203   -0.8900 H         1 <0>         0.1062
     28 H4         -4.5417   -3.8813   -0.0350 H         1 <0>         0.0632
     29 H5         -0.4095   -2.3325   -0.7214 H         1 <0>         0.1466
     30 H6          2.0452   -2.3617   -0.5969 H         1 <0>         0.1447
     31 H7          3.1752   -3.4896    1.2736 H         1 <0>         0.1413
     32 H8         -0.6106   -4.5694    2.9325 H         1 <0>         0.1427
     33 H9          3.5551   -6.5751    4.5821 H         1 <0>         0.1103
     34 H10         1.9799   -6.4651    5.4035 H         1 <0>         0.1113
     35 H11         1.2268   -8.5180    4.2343 H         1 <0>         0.0813
     36 H12         2.8021   -8.6280    3.4129 H         1 <0>         0.0810
     37 H13         4.8423   -9.5279    4.8319 H         1 <0>         0.1713
     38 H14         0.2033   -8.4451    6.6699 H         1 <0>         0.1211
     39 H15        -0.4107   -9.1461    8.9295 H         1 <0>         0.1230
     40 H16         1.1910  -10.3761   10.3310 H         1 <0>         0.1256
     41 H17         3.4262  -10.9278    9.4807 H         1 <0>         0.1198
@<TRIPOS>BOND
     1    1    2 1
     2    1   26 1
     3    1   27 1
     4    1   28 1
     5    2    3 1
     6    3    4 2
     7    3    5 1
     8    5   10 ar
     9    5    6 ar
    10    6    7 ar
    11    6   29 1
    12    7    8 ar
    13    7   30 1
    14    8    9 ar
    15    8   31 1
    16    9   10 ar
    17    9   11 1
    18   10   32 1
    19   11   12 1
    20   12   13 2
    21   12   14 1
    22   14   15 1
    23   14   33 1
    24   14   34 1
    25   15   16 1
    26   15   35 1
    27   15   36 1
    28   16   21 1
    29   16   17 2
    30   17   18 1
    31   17   37 1
    32   18   19 1
    33   18   20 1
    34   20   25 ar
    35   20   21 ar
    36   21   22 ar
    37   22   23 ar
    38   22   38 1
    39   23   24 ar
    40   23   39 1
    41   24   25 ar
    42   24   40 1
    43   25   41 1
@<TRIPOS>MOLECULE
ZINC64029376
   36    37     0     0     0
SMALL
USER_CHARGES

@<TRIPOS>ATOM
      1 C1         -0.0167    1.3781    0.0096 C.ar      1 <0>        -0.0976
      2 C2          1.1709    2.0855    0.0021 C.ar      1 <0>        -0.0954
      3 C3          2.3773    1.4107   -0.0130 C.ar      1 <0>        -0.0805
      4 C4          2.3960    0.0285   -0.0201 C.ar      1 <0>        -0.0954
      5 C5          1.2085   -0.6789   -0.0117 C.ar      1 <0>        -0.0975
      6 C6          0.0021   -0.0041    0.0020 C.ar      1 <0>        -0.1078
      7 C7         -1.2926   -0.7753    0.0107 C.3       1 <0>         0.1520
      8 N1         -1.7258   -1.0177   -1.3676 N.pl3     1 <0>        -0.6736
      9 C8         -2.9076   -1.7188   -1.6148 C.2       1 <0>         0.1962
     10 C9         -3.4754   -2.0500   -2.8082 C.2       1 <0>        -0.2892
     11 C10        -4.6650   -2.7570   -2.8064 C.2       1 <0>         0.0154
     12 C11        -5.2268   -3.0970   -1.6225 C.2       1 <0>        -0.2229
     13 S1         -4.0634   -2.4210   -0.4494 S.3       1 <0>         0.1807
     14 N2         -6.4811   -3.8434   -1.3664 N.pl3     1 <0>         0.0920
     15 O1         -7.1508   -4.2361   -2.2932 O.2       1 <0>        -0.1581
     16 O2         -6.8347   -4.0596   -0.2307 O.3       1 <0>        -0.1639
     17 C12         3.6720    2.1819   -0.0222 C.3       1 <0>         0.1022
     18 O3          4.0946    2.4194    1.3220 O.3       1 <0>        -0.3665
     19 C13         5.3195    3.1478    1.4262 C.3       1 <0>         0.0170
     20 C14         5.6731    3.3428    2.9019 C.3       1 <0>         0.4619
     21 F1          5.8196    2.0940    3.5153 F         1 <0>        -0.1749
     22 F2          6.8723    4.0560    3.0038 F         1 <0>        -0.1750
     23 F3          4.6506    4.0568    3.5360 F         1 <0>        -0.1749
     24 H1         -0.9591    1.9053    0.0259 H         1 <0>         0.1299
     25 H2          1.1563    3.1654    0.0076 H         1 <0>         0.1301
     26 H3          3.3385   -0.4987   -0.0326 H         1 <0>         0.1300
     27 H4          1.2231   -1.7588   -0.0179 H         1 <0>         0.1299
     28 H5         -1.1443   -1.7285    0.5180 H         1 <0>         0.0851
     29 H6         -2.0551   -0.1993    0.5352 H         1 <0>         0.0851
     30 H7         -1.1916   -0.6912   -2.1085 H         1 <0>         0.4193
     31 H8         -3.0059   -1.7657   -3.7383 H         1 <0>         0.1515
     32 H9         -5.1389   -3.0334   -3.7367 H         1 <0>         0.1573
     33 H10         4.4344    1.6056   -0.5463 H         1 <0>         0.0697
     34 H11         3.5237    3.1349   -0.5302 H         1 <0>         0.0697
     35 H12         6.1161    2.5916    0.9321 H         1 <0>         0.0992
     36 H13         5.2054    4.1208    0.9483 H         1 <0>         0.0992
@<TRIPOS>BOND
     1    1    6 ar
     2    1    2 ar
     3    1   24 1
     4    2    3 ar
     5    2   25 1
     6    3    4 ar
     7    3   17 1
     8    4    5 ar
     9    4   26 1
    10    5    6 ar
    11    5   27 1
    12    6    7 1
    13    7    8 1
    14    7   28 1
    15    7   29 1
    16    8    9 1
    17    8   30 1
    18    9   13 1
    19    9   10 2
    20   10   11 1
    21   10   31 1
    22   11   12 2
    23   11   32 1
    24   12   13 1
    25   12   14 1
    26   14   15 2
    27   14   16 1
    28   17   18 1
    29   17   33 1
    30   17   34 1
    31   18   19 1
    32   19   20 1
    33   19   35 1
    34   19   36 1
    35   20   21 1
    36   20   22 1
    37   20   23 1
@<TRIPOS>MOLECULE
ZINC08935191
   54    56     0     0     0
SMALL
USER_CHARGES
ethyl 2-[(2-benzoylamino-5-bromo-phenyl)-phenyl-methyl]aminoacetate
@<TRIPOS>ATOM
      1 C1          3.6699    6.3214   -0.0051 C.3       1 <0>        -0.1591
      2 C2          2.2806    5.6808    0.0139 C.3       1 <0>         0.0641
      3 O1          2.4140    4.2350   -0.0001 O.3       1 <0>        -0.3351
      4 C3          1.2793    3.5181    0.0138 C.2       1 <0>         0.4540
      5 O2          0.2099    4.0800    0.0369 O.2       1 <0>        -0.4923
      6 C4          1.3391    2.0123    0.0007 C.3       1 <0>        -0.0003
      7 C5         -0.0060   -0.0009    0.0078 C.3       1 <0>         0.1472
      8 H1          0.8505   -0.3579    0.5796 H         1 <0>         0.1472
      9 C6          0.0998   -0.4902   -1.4136 C.ar      1 <0>        -0.1425
     10 C7         -0.6136    0.1397   -2.4163 C.ar      1 <0>        -0.1169
     11 C8         -0.5131   -0.3064   -3.7209 C.ar      1 <0>        -0.0974
     12 C9          0.2932   -1.3882   -4.0212 C.ar      1 <0>        -0.0858
     13 C10         1.0028   -2.0211   -3.0178 C.ar      1 <0>        -0.0999
     14 C11         0.9058   -1.5723   -1.7140 C.ar      1 <0>        -0.0847
     15 C12        -1.2765   -0.5250    0.6262 C.ar      1 <0>        -0.1680
     16 C13        -2.4172    0.2539    0.6274 C.ar      1 <0>        -0.0792
     17 C14        -3.5853   -0.2288    1.1898 C.ar      1 <0>        -0.0975
     18 C15        -3.6116   -1.4882    1.7627 C.ar      1 <0>        -0.0397
     19 C16        -2.4727   -2.2690    1.7695 C.ar      1 <0>        -0.1112
     20 C17        -1.2999   -1.7891    1.2004 C.ar      1 <0>         0.2114
     21 N1         -0.1445   -2.5776    1.2062 N.am      1 <0>        -0.6749
     22 C18        -0.2449   -3.9196    1.2812 C.2       1 <0>         0.5669
     23 O3         -1.3378   -4.4505    1.2424 O.2       1 <0>        -0.4926
     24 C19         0.9740   -4.7458    1.4105 C.ar      1 <0>        -0.1489
     25 C20         2.2308   -4.1397    1.4495 C.ar      1 <0>        -0.0902
     26 C21         3.3640   -4.9163    1.5761 C.ar      1 <0>        -0.1236
     27 C22         3.2574   -6.2937    1.6524 C.ar      1 <0>        -0.0795
     28 C23         2.0151   -6.9011    1.6086 C.ar      1 <0>        -0.1199
     29 C24         0.8736   -6.1359    1.4884 C.ar      1 <0>        -0.0503
     30 Br1        -5.1471    0.8374    1.1825 Br        1 <0>        -0.0179
     31 H2          3.5697    7.4067    0.0054 H         1 <0>         0.0931
     32 H3          4.2303    5.9997    0.8728 H         1 <0>         0.0726
     33 H4          4.1994    6.0141   -0.9069 H         1 <0>         0.0726
     34 H5          1.7202    6.0024   -0.8640 H         1 <0>         0.0828
     35 H6          1.7510    5.9881    0.9157 H         1 <0>         0.0831
     36 H7          1.8823    1.6626    0.8786 H         1 <0>         0.1776
     37 H8          1.8514    1.6769   -0.9011 H         1 <0>         0.1771
     38 H9         -1.2467    0.9824   -2.1810 H         1 <0>         0.1203
     39 H10        -1.0673    0.1883   -4.5049 H         1 <0>         0.1389
     40 H11         0.3691   -1.7388   -5.0399 H         1 <0>         0.1387
     41 H12         1.6328   -2.8663   -3.2525 H         1 <0>         0.1391
     42 H13         1.4599   -2.0670   -0.9300 H         1 <0>         0.1268
     43 H14        -2.3983    1.2389    0.1849 H         1 <0>         0.1313
     44 H15        -4.5238   -1.8609    2.2047 H         1 <0>         0.1516
     45 H16        -2.4937   -3.2516    2.2171 H         1 <0>         0.1683
     46 H17         0.7289   -2.1586    1.1563 H         1 <0>         0.4062
     47 H18         2.3156   -3.0649    1.3856 H         1 <0>         0.1176
     48 H19         4.3367   -4.4483    1.6112 H         1 <0>         0.1343
     49 H20         4.1480   -6.8973    1.7469 H         1 <0>         0.1350
     50 H21         1.9388   -7.9767    1.6689 H         1 <0>         0.1380
     51 H22        -0.0956   -6.6113    1.4544 H         1 <0>         0.1407
     52 N2         -0.0340    1.4739    0.0202 N.4       1 <0>        -0.5111
     53 H23        -0.5414    1.8099   -0.8068 H         1 <0>         0.4379
     54 H24        -0.5122    1.7964    0.8696 H         1 <0>         0.4438
@<TRIPOS>BOND
     1    1    2 1
     2    1   31 1
     3    1   32 1
     4    1   33 1
     5    2    3 1
     6    2   34 1
     7    2   35 1
     8    3    4 1
     9    4    5 2
    10    4    6 1
    11    6   36 1
    12    6   37 1
    13    6   52 1
    14    7    8 1
    15    7    9 1
    16    7   15 1
    17    7   52 1
    18    9   14 ar
    19    9   10 ar
    20   10   11 ar
    21   10   38 1
    22   11   12 ar
    23   11   39 1
    24   12   13 ar
    25   12   40 1
    26   13   14 ar
    27   13   41 1
    28   14   42 1
    29   15   20 ar
    30   15   16 ar
    31   16   17 ar
    32   16   43 1
    33   17   18 ar
    34   17   30 1
    35   18   19 ar
    36   18   44 1
    37   19   20 ar
    38   19   45 1
    39   20   21 1
    40   21   22 am
    41   21   46 1
    42   22   23 2
    43   22   24 1
    44   24   29 ar
    45   24   25 ar
    46   25   26 ar
    47   25   47 1
    48   26   27 ar
    49   26   48 1
    50   27   28 ar
    51   27   49 1
    52   28   29 ar
    53   28   50 1
    54   29   51 1
    55   52   53 1
    56   52   54 1
@<TRIPOS>MOLECULE
ZINC22215448
   68    70     0     0     0
SMALL
USER_CHARGES
(2R,3R,5R,6S)-4-allyl-2,6-bis(2,5-dimethoxyphenyl)-3,5-dimethyl-piperidin-4-ol
@<TRIPOS>ATOM
      1 C1          2.9150    3.3502   -1.8101 C.3       1 <0>        -0.1418
      2 C2          4.1179    2.4484   -1.5261 C.3       1 <0>        -0.0829
      3 H1          4.0757    1.5673   -2.1832 H         1 <0>         0.1024
      4 C3          4.0858    1.9993   -0.0635 C.3       1 <0>         0.1123
      5 H2          4.1333    2.8639    0.6149 H         1 <0>         0.1547
      6 N1          5.2515    1.1508    0.2150 N.4       1 <0>        -0.5420
      7 C4          6.5053    1.8889    0.0157 C.3       1 <0>         0.1111
      8 H3          6.4926    2.7561    0.6922 H         1 <0>         0.1520
      9 C5          6.6096    2.3348   -1.4446 C.3       1 <0>        -0.1237
     10 H4          7.5424    2.8988   -1.5924 H         1 <0>         0.1241
     11 C6          5.4117    3.2243   -1.7884 C.3       1 <0>         0.1570
     12 C7          5.4782    3.6237   -3.2638 C.3       1 <0>        -0.1201
     13 C8          6.7784    4.3364   -3.5332 C.2       1 <0>        -0.1726
     14 C9          7.6138    3.8608   -4.4232 C.2       1 <0>        -0.1785
     15 O1          5.4393    4.3983   -0.9741 O.3       1 <0>        -0.5765
     16 C10         6.6119    1.1053   -2.3552 C.3       1 <0>        -0.1738
     17 C11         7.6722    0.9969    0.3529 C.ar      1 <0>        -0.1241
     18 C12         7.5374   -0.3758    0.2751 C.ar      1 <0>        -0.1318
     19 C13         8.6127   -1.1965    0.5804 C.ar      1 <0>         0.1158
     20 C14         9.8205   -0.6394    0.9745 C.ar      1 <0>        -0.1471
     21 C15         9.9535    0.7327    1.0577 C.ar      1 <0>        -0.1502
     22 C16         8.8795    1.5539    0.7468 C.ar      1 <0>         0.1233
     23 O2          9.0105    2.9049    0.8288 O.3       1 <0>        -0.3142
     24 C17        10.2822    3.4095    1.2412 C.3       1 <0>         0.0197
     25 O3          8.4819   -2.5475    0.4980 O.3       1 <0>        -0.3124
     26 C18         9.6288   -3.3320    0.8318 C.3       1 <0>         0.0194
     27 C19         2.8231    1.2181    0.1942 C.ar      1 <0>        -0.1266
     28 C20         2.8578   -0.1628    0.2177 C.ar      1 <0>        -0.1345
     29 C21         1.6958   -0.8817    0.4545 C.ar      1 <0>         0.1151
     30 C22         0.4986   -0.2143    0.6676 C.ar      1 <0>        -0.1474
     31 C23         0.4638    1.1662    0.6436 C.ar      1 <0>        -0.1507
     32 C24         1.6262    1.8853    0.4068 C.ar      1 <0>         0.1262
     33 O4          1.5918    3.2445    0.3828 O.3       1 <0>        -0.3055
     34 C25         0.3249    3.8655    0.6092 C.3       1 <0>         0.0164
     35 O5          1.7299   -2.2409    0.4772 O.3       1 <0>        -0.3131
     36 C26         0.4957   -2.9168    0.7262 C.3       1 <0>         0.0196
     37 H5          1.9859    2.7923   -1.6215 H         1 <0>         0.0675
     38 H6          2.9406    3.6755   -2.8606 H         1 <0>         0.0669
     39 H7          2.9537    4.2311   -1.1524 H         1 <0>         0.0851
     40 H8          5.2111    0.8030    1.2578 H         1 <0>         0.4523
     41 H9          5.4176    2.7220   -3.8908 H         1 <0>         0.0804
     42 H10         4.6376    4.2924   -3.5009 H         1 <0>         0.0925
     43 H11         7.0260    5.2559   -2.9826 H         1 <0>         0.1142
     44 H12         8.5629    4.3810   -4.6199 H         1 <0>         0.1046
     45 H13         7.3662    2.9413   -4.9738 H         1 <0>         0.0993
     46 H14         6.2976    5.0842   -1.0269 H         1 <0>         0.4177
     47 H15         6.6869    1.4264   -3.4046 H         1 <0>         0.0880
     48 H16         5.6794    0.5401   -2.2104 H         1 <0>         0.0508
     49 H17         7.4711    0.4655   -2.1052 H         1 <0>         0.0797
     50 H18         6.5959   -0.8097   -0.0277 H         1 <0>         0.1289
     51 H19        10.6568   -1.2787    1.2159 H         1 <0>         0.1428
     52 H20        10.8938    1.1665    1.3645 H         1 <0>         0.1440
     53 H21        10.2504    4.5088    1.2647 H         1 <0>         0.1110
     54 H22        11.0551    3.0801    0.5312 H         1 <0>         0.0623
     55 H23        10.5200    3.0280    2.2451 H         1 <0>         0.0623
     56 H24         9.3869   -4.3996    0.7235 H         1 <0>         0.1109
     57 H25         9.9236   -3.1265    1.8714 H         1 <0>         0.0616
     58 H26        10.4586   -3.0737    0.1574 H         1 <0>         0.0617
     59 H27         3.7900   -0.6825    0.0521 H         1 <0>         0.1277
     60 H28        -0.4064   -0.7741    0.8520 H         1 <0>         0.1425
     61 H29        -0.4692    1.6857    0.8048 H         1 <0>         0.1444
     62 H30         0.4389    4.9586    0.5630 H         1 <0>         0.1104
     63 H31        -0.0523    3.5778    1.6016 H         1 <0>         0.0613
     64 H32        -0.3871    3.5381   -0.1628 H         1 <0>         0.0619
     65 H33         0.6647   -4.0037    0.7174 H         1 <0>         0.1106
     66 H34        -0.2314   -2.6524   -0.0558 H         1 <0>         0.0617
     67 H35         0.1038   -2.6145    1.7086 H         1 <0>         0.0615
     68 H36         5.2436    0.2834   -0.4614 H         1 <0>         0.4339
@<TRIPOS>BOND
     1    1    2 1
     2    1   37 1
     3    1   38 1
     4    1   39 1
     5    2    3 1
     6    2   11 1
     7    2    4 1
     8    4    5 1
     9    4    6 1
    10    4   27 1
    11    6    7 1
    12    6   40 1
    13    6   68 1
    14    7    8 1
    15    7    9 1
    16    7   17 1
    17    9   10 1
    18    9   11 1
    19    9   16 1
    20   11   12 1
    21   11   15 1
    22   12   13 1
    23   12   41 1
    24   12   42 1
    25   13   14 2
    26   13   43 1
    27   14   44 1
    28   14   45 1
    29   15   46 1
    30   16   47 1
    31   16   48 1
    32   16   49 1
    33   17   22 ar
    34   17   18 ar
    35   18   19 ar
    36   18   50 1
    37   19   20 ar
    38   19   25 1
    39   20   21 ar
    40   20   51 1
    41   21   22 ar
    42   21   52 1
    43   22   23 1
    44   23   24 1
    45   24   53 1
    46   24   54 1
    47   24   55 1
    48   25   26 1
    49   26   56 1
    50   26   57 1
    51   26   58 1
    52   27   32 ar
    53   27   28 ar
    54   28   29 ar
    55   28   59 1
    56   29   30 ar
    57   29   35 1
    58   30   31 ar
    59   30   60 1
    60   31   32 ar
    61   31   61 1
    62   32   33 1
    63   33   34 1
    64   34   62 1
    65   34   63 1
    66   34   64 1
    67   35   36 1
    68   36   65 1
    69   36   66 1
    70   36   67 1
@<TRIPOS>MOLECULE
ZINC38547018
   55    58     0     0     0
SMALL
USER_CHARGES

@<TRIPOS>ATOM
      1 C1         -1.4673    1.1526    5.2195 C.3       1 <0>        -0.1417
      2 C2         -1.4938   -0.3337    4.9715 C.ar      1 <0>         0.1846
      3 C3         -2.3076   -1.1389    5.7433 C.ar      1 <0>        -0.1732
      4 C4         -2.3281   -2.5074    5.5104 C.ar      1 <0>         0.0417
      5 C5         -1.5259   -3.0183    4.5058 C.ar      1 <0>        -0.2006
      6 C6         -0.7306   -2.1485    3.7671 C.ar      1 <0>         0.4537
      7 N1         -0.7430   -0.8479    4.0162 N.ar      1 <0>        -0.5038
      8 N2          0.0807   -2.6483    2.7549 N.pl3     1 <0>        -0.6900
      9 C7          0.1606   -4.0931    2.5265 C.3       1 <0>         0.2630
     10 H1          0.0754   -4.6168    3.4786 H         1 <0>         0.1022
     11 C8          1.4829   -4.4279    1.8856 C.ar      1 <0>        -0.1183
     12 C9          1.9515   -3.6648    0.8317 C.ar      1 <0>        -0.0829
     13 C10         3.1623   -3.9689    0.2417 C.ar      1 <0>        -0.0929
     14 C11         3.9105   -5.0430    0.7085 C.ar      1 <0>        -0.0669
     15 C12         3.4366   -5.8073    1.7681 C.ar      1 <0>        -0.1262
     16 C13         2.2273   -5.4941    2.3565 C.ar      1 <0>        -0.0797
     17 S1          5.4559   -5.4352   -0.0415 S.3       1 <0>        -0.0962
     18 C14         6.0417   -6.8780    0.8888 C.3       1 <0>        -0.1494
     19 C15        -0.9615   -4.5206    1.6159 C.2       1 <0>        -0.1999
     20 C16        -1.5244   -3.6258    0.7245 C.2       1 <0>        -0.1386
     21 C17        -2.5313   -4.0430   -0.0800 C.2       1 <0>        -0.1728
     22 S2         -2.7171   -5.7496    0.4095 S.3       1 <0>         0.1922
     23 C18        -1.4361   -5.7974    1.6520 C.2       1 <0>         0.0828
     24 N3         -1.0279   -6.8651    2.4539 N.am      1 <0>        -0.6200
     25 C19        -1.6310   -8.0647    2.3371 C.2       1 <0>         0.6057
     26 O1         -2.5316   -8.2174    1.5325 O.2       1 <0>        -0.4746
     27 C20        -1.2024   -9.1859    3.1791 C.2       1 <0>        -0.1023
     28 C21        -1.7216  -10.4488    3.1591 C.2       1 <0>        -0.0898
     29 C22        -1.0175  -11.1899    4.1212 C.2       1 <0>        -0.2221
     30 C23        -0.1110  -10.3575    4.6791 C.2       1 <0>         0.0131
     31 O2         -0.2220   -9.1523    4.1053 O.3       1 <0>        -0.1707
     32 C24        -3.2974   -3.2665   -1.1198 C.3       1 <0>        -0.0726
     33 H2         -2.2289    1.6366    4.6081 H         1 <0>         0.1137
     34 H3         -1.6681    1.3488    6.2727 H         1 <0>         0.1173
     35 H4         -0.4858    1.5473    4.9571 H         1 <0>         0.0940
     36 H5         -2.9219   -0.7085    6.5204 H         1 <0>         0.1799
     37 H6         -2.9558   -3.1586    6.1006 H         1 <0>         0.1739
     38 H7         -1.5170   -4.0781    4.2980 H         1 <0>         0.1721
     39 H8          0.5938   -2.0403    2.1999 H         1 <0>         0.4185
     40 H9          1.3695   -2.8302    0.4695 H         1 <0>         0.1243
     41 H10         3.5274   -3.3729   -0.5817 H         1 <0>         0.1358
     42 H11         4.0154   -6.6428    2.1334 H         1 <0>         0.1319
     43 H12         1.8603   -6.0852    3.1825 H         1 <0>         0.1249
     44 H13         5.3206   -7.6898    0.7924 H         1 <0>         0.0872
     45 H14         7.0052   -7.1990    0.4929 H         1 <0>         0.1165
     46 H15         6.1512   -6.6124    1.9403 H         1 <0>         0.0870
     47 H16        -1.1665   -2.6083    0.6707 H         1 <0>         0.1242
     48 H17        -0.3102   -6.7435    3.0951 H         1 <0>         0.4186
     49 H18        -2.5196  -10.8078    2.5261 H         1 <0>         0.1667
     50 H19        -1.1716  -12.2297    4.3691 H         1 <0>         0.1651
     51 H20         0.5904  -10.6217    5.4567 H         1 <0>         0.2178
     52 H21        -2.7967   -3.3581   -2.0837 H         1 <0>         0.0829
     53 H22        -4.3096   -3.6634   -1.1970 H         1 <0>         0.0774
     54 H23        -3.3399   -2.2164   -0.8308 H         1 <0>         0.0781
     55 H24        -0.1835   -0.2593    3.4857 H         1 <0>         0.4383
@<TRIPOS>BOND
     1    1    2 1
     2    1   33 1
     3    1   34 1
     4    1   35 1
     5    2    7 ar
     6    2    3 ar
     7    3    4 ar
     8    3   36 1
     9    4    5 ar
    10    4   37 1
    11    5    6 ar
    12    5   38 1
    13    6    7 ar
    14    6    8 1
    15    7   55 1
    16    8    9 1
    17    8   39 1
    18    9   10 1
    19    9   11 1
    20    9   19 1
    21   11   16 ar
    22   11   12 ar
    23   12   13 ar
    24   12   40 1
    25   13   14 ar
    26   13   41 1
    27   14   15 ar
    28   14   17 1
    29   15   16 ar
    30   15   42 1
    31   16   43 1
    32   17   18 1
    33   18   44 1
    34   18   45 1
    35   18   46 1
    36   19   23 2
    37   19   20 1
    38   20   21 2
    39   20   47 1
    40   21   22 1
    41   21   32 1
    42   22   23 1
    43   23   24 1
    44   24   25 am
    45   24   48 1
    46   25   26 2
    47   25   27 1
    48   27   31 1
    49   27   28 2
    50   28   29 1
    51   28   49 1
    52   29   30 2
    53   29   50 1
    54   30   31 1
    55   30   51 1
    56   32   52 1
    57   32   53 1
    58   32   54 1
@<TRIPOS>MOLECULE
ZINC48331568
   65    68     0     0     0
SMALL
USER_CHARGES

@<TRIPOS>ATOM
      1 C1         -2.9941    1.3554    0.4021 C.3       1 <0>        -0.0477
      2 N1         -2.7442   -0.0360    0.0028 N.4       1 <0>        -0.3860
      3 C2         -1.9547   -0.0557   -1.2358 C.3       1 <0>        -0.0535
      4 C3         -2.0025   -0.7252    1.0672 C.3       1 <0>         0.0434
      5 C4         -1.8530   -2.1823    0.7129 C.ar      1 <0>        -0.1645
      6 C5         -2.8191   -3.0901    1.1078 C.ar      1 <0>        -0.0882
      7 C6         -2.6872   -4.4257    0.7860 C.ar      1 <0>        -0.1046
      8 C7         -1.5784   -4.8591    0.0620 C.ar      1 <0>         0.0033
      9 C8         -0.6083   -3.9402   -0.3333 C.ar      1 <0>        -0.1016
     10 C9         -0.7531   -2.6061   -0.0109 C.ar      1 <0>        -0.0891
     11 C10        -1.4309   -6.2939   -0.2865 C.ar      1 <0>        -0.0590
     12 C11        -2.4299   -6.9445   -1.0082 C.ar      1 <0>        -0.1008
     13 C12        -2.2874   -8.2789   -1.3300 C.ar      1 <0>        -0.1072
     14 C13        -1.1554   -8.9706   -0.9375 C.ar      1 <0>        -0.1044
     15 C14        -0.1611   -8.3300   -0.2207 C.ar      1 <0>        -0.0969
     16 C15        -0.2907   -6.9940    0.1016 C.ar      1 <0>        -0.0918
     17 C16         0.7964   -6.2957    0.8773 C.3       1 <0>         0.1542
     18 N2          0.3482   -6.0737    2.2543 N.am      1 <0>        -0.7264
     19 C17         1.1198   -5.3739    3.1095 C.2       1 <0>         0.5156
     20 O1          2.1851   -4.9279    2.7391 O.2       1 <0>        -0.5351
     21 C18         0.6588   -5.1455    4.5260 C.3       1 <0>        -0.1446
     22 C19         1.7111   -4.3295    5.2795 C.3       1 <0>        -0.0899
     23 C20         1.2431   -4.0977    6.7176 C.3       1 <0>        -0.1049
     24 H1          0.2572   -3.6327    6.7072 H         1 <0>         0.1126
     25 C21         2.2321   -3.1760    7.4315 C.3       1 <0>        -0.0738
     26 C22         3.5127   -3.9217    7.7063 C.ar      1 <0>        -0.1239
     27 C23         4.7203   -3.2513    7.6806 C.ar      1 <0>        -0.0824
     28 C24         5.8951   -3.9307    7.9449 C.ar      1 <0>        -0.1371
     29 C25         5.8647   -5.2822    8.2366 C.ar      1 <0>        -0.0864
     30 C26         4.6611   -5.9585    8.2594 C.ar      1 <0>        -0.1507
     31 C27         3.4795   -5.2800    7.9872 C.ar      1 <0>         0.1565
     32 N3          2.2649   -5.9713    7.9761 N.am      1 <0>        -0.6600
     33 C28         1.1663   -5.4178    7.4380 C.2       1 <0>         0.5246
     34 O2          0.1004   -5.9886    7.5334 O.2       1 <0>        -0.5249
     35 H2         -3.5444    1.8668   -0.3877 H         1 <0>         0.1246
     36 H3         -3.5799    1.3701    1.3212 H         1 <0>         0.1236
     37 H4         -2.0435    1.8619    0.5690 H         1 <0>         0.1225
     38 H5         -2.5050    0.4557   -2.0256 H         1 <0>         0.1240
     39 H6         -1.0040    0.4507   -1.0689 H         1 <0>         0.1222
     40 H7         -1.7692   -1.0882   -1.5321 H         1 <0>         0.1233
     41 H8         -1.0160   -0.2740    1.1734 H         1 <0>         0.1352
     42 H9         -2.5469   -0.6338    2.0071 H         1 <0>         0.1366
     43 H10        -3.6779   -2.7532    1.6693 H         1 <0>         0.1330
     44 H11        -3.4419   -5.1337    1.0952 H         1 <0>         0.1365
     45 H12         0.2533   -4.2708   -0.8943 H         1 <0>         0.1363
     46 H13        -0.0042   -1.8923   -0.3208 H         1 <0>         0.1323
     47 H14        -3.3141   -6.4055   -1.3148 H         1 <0>         0.1266
     48 H15        -3.0611   -8.7842   -1.8889 H         1 <0>         0.1316
     49 H16        -1.0479  -10.0148   -1.1914 H         1 <0>         0.1320
     50 H17         0.7202   -8.8750    0.0838 H         1 <0>         0.1317
     51 H18         1.6938   -6.9144    0.8825 H         1 <0>         0.0775
     52 H19         1.0188   -5.3371    0.4085 H         1 <0>         0.0824
     53 H20        -0.5038   -6.4304    2.5505 H         1 <0>         0.4019
     54 H21        -0.2855   -4.6011    4.5174 H         1 <0>         0.0957
     55 H22         0.5200   -6.1060    5.0222 H         1 <0>         0.0960
     56 H23         2.6554   -4.8739    5.2880 H         1 <0>         0.0789
     57 H24         1.8499   -3.3690    4.7832 H         1 <0>         0.0865
     58 H25         2.4434   -2.3124    6.8008 H         1 <0>         0.0930
     59 H26         1.7991   -2.8393    8.3734 H         1 <0>         0.0858
     60 H27         4.7468   -2.1958    7.4535 H         1 <0>         0.1294
     61 H28         6.8383   -3.4050    7.9232 H         1 <0>         0.1280
     62 H29         6.7836   -5.8093    8.4473 H         1 <0>         0.1304
     63 H30         4.6382   -7.0138    8.4878 H         1 <0>         0.1291
     64 H31         2.2152   -6.8602    8.3613 H         1 <0>         0.4125
     65 H32        -3.6242   -0.5048   -0.1517 H         1 <0>         0.4259
@<TRIPOS>BOND
     1    1    2 1
     2    1   35 1
     3    1   36 1
     4    1   37 1
     5    2    3 1
     6    2    4 1
     7    2   65 1
     8    3   38 1
     9    3   39 1
    10    3   40 1
    11    4    5 1
    12    4   41 1
    13    4   42 1
    14    5   10 ar
    15    5    6 ar
    16    6    7 ar
    17    6   43 1
    18    7    8 ar
    19    7   44 1
    20    8    9 ar
    21    8   11 1
    22    9   10 ar
    23    9   45 1
    24   10   46 1
    25   11   16 ar
    26   11   12 ar
    27   12   13 ar
    28   12   47 1
    29   13   14 ar
    30   13   48 1
    31   14   15 ar
    32   14   49 1
    33   15   16 ar
    34   15   50 1
    35   16   17 1
    36   17   18 1
    37   17   51 1
    38   17   52 1
    39   18   19 am
    40   18   53 1
    41   19   20 2
    42   19   21 1
    43   21   22 1
    44   21   54 1
    45   21   55 1
    46   22   23 1
    47   22   56 1
    48   22   57 1
    49   23   24 1
    50   23   33 1
    51   23   25 1
    52   25   26 1
    53   25   58 1
    54   25   59 1
    55   26   31 ar
    56   26   27 ar
    57   27   28 ar
    58   27   60 1
    59   28   29 ar
    60   28   61 1
    61   29   30 ar
    62   29   62 1
    63   30   31 ar
    64   30   63 1
    65   31   32 1
    66   32   33 am
    67   32   64 1
    68   33   34 2
@<TRIPOS>MOLECULE
ZINC63588935
   61    64     0     0     0
SMALL
USER_CHARGES

@<TRIPOS>ATOM
      1 C1         -5.8719   -1.2545   -0.2841 C.3       1 <0>        -0.1218
      2 C2         -4.7976   -2.3090   -0.2147 C.ar      1 <0>        -0.0903
      3 C3         -4.6539   -3.2154   -1.2498 C.ar      1 <0>        -0.1058
      4 C4         -3.6724   -4.1833   -1.1924 C.ar      1 <0>        -0.0696
      5 C5         -2.8224   -4.2477   -0.0880 C.ar      1 <0>        -0.0963
      6 C6         -2.9701   -3.3319    0.9532 C.ar      1 <0>        -0.0927
      7 C7         -3.9539   -2.3634    0.8829 C.ar      1 <0>         0.0790
      8 F1         -4.0962   -1.4721    1.8881 F         1 <0>        -0.1355
      9 C8         -1.7675   -5.2851   -0.0214 C.2       1 <0>         0.5478
     10 O1         -1.7001   -6.1416   -0.8849 O.2       1 <0>        -0.5243
     11 N1         -0.8874   -5.2815    0.9885 N.2       1 <0>        -0.6730
     12 C9          0.1390   -6.1185    0.9754 C.2       1 <0>         0.7003
     13 N2          0.5707   -6.6508   -0.2054 N.pl3     1 <0>        -0.6778
     14 C10         0.5182   -5.8884   -1.3769 C.ar      1 <0>         0.2114
     15 C11         0.4212   -4.5049   -1.3031 C.ar      1 <0>        -0.1824
     16 C12         0.3695   -3.7550   -2.4617 C.ar      1 <0>        -0.0402
     17 C13         0.4141   -4.3802   -3.6943 C.ar      1 <0>        -0.1463
     18 C14         0.5107   -5.7576   -3.7713 C.ar      1 <0>        -0.0438
     19 C15         0.5686   -6.5128   -2.6164 C.ar      1 <0>        -0.1496
     20 C16         0.5585   -6.4347   -5.1167 C.3       1 <0>        -0.1174
     21 C17         0.2637   -2.2538   -2.3826 C.3       1 <0>        -0.1173
     22 N3          0.7647   -6.4487    2.1415 N.pl3     1 <0>        -0.6980
     23 C18         1.9648   -7.2886    2.1166 C.3       1 <0>         0.1175
     24 C19         2.4000   -7.5989    3.5502 C.3       1 <0>        -0.1025
     25 C20         3.6995   -8.3615    3.5267 C.2       1 <0>         0.0637
     26 C21         4.9454   -7.8491    3.6484 C.ar      1 <0>        -0.1618
     27 C22         5.4443   -6.4808    3.8308 C.ar      1 <0>        -0.0157
     28 C23         6.7781   -6.2755    3.9207 C.ar      1 <0>        -0.1473
     29 C24         7.6936   -7.3341    3.8437 C.ar      1 <0>         0.0561
     30 C25         7.3116   -8.6179    3.6769 C.ar      1 <0>        -0.2099
     31 C26         5.9326   -8.9495    3.5707 C.ar      1 <0>         0.3284
     32 N4          5.3210  -10.0974    3.4074 N.pl3     1 <0>        -0.5834
     33 C27         3.8744   -9.8554    3.3690 C.3       1 <0>         0.0607
     34 H1         -5.4761   -0.3641   -0.7727 H         1 <0>         0.0795
     35 H2         -6.7189   -1.6357   -0.8545 H         1 <0>         0.0765
     36 H3         -6.1978   -1.0008    0.7247 H         1 <0>         0.0734
     37 H4         -5.3119   -3.1655   -2.1047 H         1 <0>         0.1385
     38 H5         -3.5624   -4.8904   -2.0013 H         1 <0>         0.1368
     39 H6         -2.3151   -3.3769    1.8107 H         1 <0>         0.1481
     40 H7          0.9139   -7.5576   -0.2319 H         1 <0>         0.4057
     41 H8          0.3859   -4.0160   -0.3407 H         1 <0>         0.1268
     42 H9          0.3731   -3.7916   -4.5989 H         1 <0>         0.1237
     43 H10         0.6484   -7.5881   -2.6772 H         1 <0>         0.1194
     44 H11         1.5952   -6.5262   -5.4408 H         1 <0>         0.0724
     45 H12         0.1129   -7.4266   -5.0403 H         1 <0>         0.0673
     46 H13         0.0021   -5.8413   -5.8422 H         1 <0>         0.0710
     47 H14         1.2593   -1.8153   -2.4514 H         1 <0>         0.0728
     48 H15        -0.3516   -1.8890   -3.2051 H         1 <0>         0.0713
     49 H16        -0.1930   -1.9712   -1.4341 H         1 <0>         0.0657
     50 H17         0.4150   -6.1274    2.9874 H         1 <0>         0.4296
     51 H18         1.7459   -8.2196    1.5938 H         1 <0>         0.0797
     52 H19         2.7665   -6.7613    1.5996 H         1 <0>         0.0830
     53 H20         2.5356   -6.6667    4.0986 H         1 <0>         0.1212
     54 H21         1.6344   -8.2005    4.0402 H         1 <0>         0.1239
     55 H22         4.7567   -5.6503    3.8919 H         1 <0>         0.1616
     56 H23         7.1474   -5.2695    4.0549 H         1 <0>         0.1592
     57 H24         8.7480   -7.1134    3.9208 H         1 <0>         0.1622
     58 H25         8.0571   -9.3975    3.6234 H         1 <0>         0.1616
     59 H26         3.3818  -10.3799    4.1878 H         1 <0>         0.1763
     60 H27         3.4661  -10.1826    2.4128 H         1 <0>         0.1736
     61 H28         5.7524  -10.9626    3.3290 H         1 <0>         0.4569
@<TRIPOS>BOND
     1    1    2 1
     2    1   34 1
     3    1   35 1
     4    1   36 1
     5    2    7 ar
     6    2    3 ar
     7    3    4 ar
     8    3   37 1
     9    4    5 ar
    10    4   38 1
    11    5    6 ar
    12    5    9 1
    13    6    7 ar
    14    6   39 1
    15    7    8 1
    16    9   11 1
    17    9   10 2
    18   11   12 2
    19   12   13 1
    20   12   22 1
    21   13   14 1
    22   13   40 1
    23   14   19 ar
    24   14   15 ar
    25   15   16 ar
    26   15   41 1
    27   16   17 ar
    28   16   21 1
    29   17   18 ar
    30   17   42 1
    31   18   19 ar
    32   18   20 1
    33   19   43 1
    34   20   44 1
    35   20   45 1
    36   20   46 1
    37   21   47 1
    38   21   48 1
    39   21   49 1
    40   22   23 1
    41   22   50 1
    42   23   24 1
    43   23   51 1
    44   23   52 1
    45   24   25 1
    46   24   53 1
    47   24   54 1
    48   25   33 1
    49   25   26 2
    50   26   31 ar
    51   26   27 ar
    52   27   28 ar
    53   27   55 1
    54   28   29 ar
    55   28   56 1
    56   29   30 ar
    57   29   57 1
    58   30   31 ar
    59   30   58 1
    60   31   32 2
    61   32   33 1
    62   32   61 1
    63   33   59 1
    64   33   60 1
@<TRIPOS>MOLECULE
ZINC08833051
   37    38     0     0     0
SMALL
USER_CHARGES
5-bromo-2-methoxy-3-methyl-N-[(2,4,5-trichlorophenyl)thiocarbamoyl]benzamide
@<TRIPOS>ATOM
      1 C1          6.1331   -9.0139   -0.8469 C.3       1 <0>        -0.1139
      2 C2          4.8281   -8.2716   -0.7162 C.ar      1 <0>        -0.1003
      3 C3          3.6362   -8.9689   -0.7081 C.ar      1 <0>        -0.0471
      4 C4          2.4308   -8.2955   -0.5884 C.ar      1 <0>        -0.1012
      5 C5          2.4101   -6.9213   -0.4763 C.ar      1 <0>        -0.0554
      6 C6          3.6090   -6.2040   -0.4832 C.ar      1 <0>        -0.1530
      7 C7          4.8257   -6.8891   -0.6102 C.ar      1 <0>         0.1801
      8 O1          5.9957   -6.2027   -0.6243 O.3       1 <0>        -0.3159
      9 C8          6.6302   -5.9763    0.6360 C.3       1 <0>         0.0459
     10 C9          3.5945   -4.7344   -0.3635 C.2       1 <0>         0.5343
     11 O2          4.6397   -4.1137   -0.3699 O.2       1 <0>        -0.3737
     12 N1          2.4224   -4.0792   -0.2471 N.am      1 <0>        -0.6370
     13 C10         2.4092   -2.7360   -0.1378 C.2       1 <0>         0.5092
     14 S1          3.8812   -1.8619   -0.1468 S.2       1 <0>        -0.4593
     15 N2          1.2371   -2.0809   -0.0214 N.pl3     1 <0>        -0.6238
     16 C11         1.2144   -0.6812   -0.0230 C.ar      1 <0>         0.1551
     17 C12         1.9734    0.0255   -0.9462 C.ar      1 <0>        -0.0432
     18 C13         1.9489    1.4074   -0.9460 C.ar      1 <0>        -0.0196
     19 C14         1.1680    2.0872   -0.0259 C.ar      1 <0>        -0.0142
     20 C15         0.4109    1.3854    0.8949 C.ar      1 <0>        -0.0837
     21 C16         0.4319    0.0033    0.8989 C.ar      1 <0>        -0.0275
     22 Cl1        -0.5190   -0.8767    2.0545 Cl        1 <0>        -0.0399
     23 Cl2         1.1393    3.8230   -0.0283 Cl        1 <0>        -0.0274
     24 Cl3         2.8971    2.2918   -2.1003 Cl        1 <0>        -0.0253
     25 Br1         0.8075   -9.2654   -0.5796 Br        1 <0>        -0.0309
     26 H1          6.3924   -9.1101   -1.9012 H         1 <0>         0.0829
     27 H2          6.9179   -8.4629   -0.3285 H         1 <0>         0.0758
     28 H3          6.0330  -10.0054   -0.4053 H         1 <0>         0.0749
     29 H4          3.6434  -10.0454   -0.7951 H         1 <0>         0.1471
     30 H5          1.4686   -6.4003   -0.3836 H         1 <0>         0.1356
     31 H6          7.5538   -5.4181    0.4827 H         1 <0>         0.1028
     32 H7          5.9631   -5.4047    1.2812 H         1 <0>         0.0516
     33 H8          6.8578   -6.9334    1.1053 H         1 <0>         0.0463
     34 H9          1.5884   -4.5745   -0.2420 H         1 <0>         0.4098
     35 H10         0.4093   -2.5793    0.0636 H         1 <0>         0.4130
     36 H11         2.5822   -0.5042   -1.6640 H         1 <0>         0.1668
     37 H12        -0.2006    1.9177    1.6084 H         1 <0>         0.1612
@<TRIPOS>BOND
     1    1    2 1
     2    1   26 1
     3    1   27 1
     4    1   28 1
     5    2    7 ar
     6    2    3 ar
     7    3    4 ar
     8    3   29 1
     9    4    5 ar
    10    4   25 1
    11    5    6 ar
    12    5   30 1
    13    6    7 ar
    14    6   10 1
    15    7    8 1
    16    8    9 1
    17    9   31 1
    18    9   32 1
    19    9   33 1
    20   10   11 2
    21   10   12 am
    22   12   13 1
    23   12   34 1
    24   13   14 2
    25   13   15 1
    26   15   16 1
    27   15   35 1
    28   16   21 ar
    29   16   17 ar
    30   17   18 ar
    31   17   36 1
    32   18   19 ar
    33   18   24 1
    34   19   20 ar
    35   19   23 1
    36   20   21 ar
    37   20   37 1
    38   21   22 1
@<TRIPOS>MOLECULE
ZINC13643128
   65    70     0     0     0
SMALL
USER_CHARGES
N-[(3aS,4R,9bR)-6-chloro-4-(9-ethylcarbazol-3-yl)-3a,4,5,9b-tetrahydro-3H-cyclopenta[c]quinolin-9-yl]butanamide
@<TRIPOS>ATOM
      1 C1         -6.7355    9.5495   -6.3084 C.3       1 <0>        -0.1543
      2 C2         -6.4054    9.8147   -4.8382 C.3       1 <0>        -0.1097
      3 C3         -4.8904    9.9491   -4.6719 C.3       1 <0>        -0.1404
      4 C4         -4.5652   10.2103   -3.2238 C.2       1 <0>         0.5130
      5 O1         -5.4574   10.2818   -2.4052 O.2       1 <0>        -0.5140
      6 N1         -3.2830   10.3644   -2.8382 N.am      1 <0>        -0.6701
      7 C5         -2.9733   10.5137   -1.4814 C.ar      1 <0>         0.1728
      8 C6         -3.8902   11.1076   -0.6282 C.ar      1 <0>        -0.1350
      9 C7         -3.5888   11.2578    0.7118 C.ar      1 <0>        -0.0784
     10 C8         -2.3740   10.8169    1.1960 C.ar      1 <0>        -0.0663
     11 C9         -1.4457   10.2195    0.3422 C.ar      1 <0>         0.1501
     12 C10        -1.7445   10.0642   -0.9988 C.ar      1 <0>        -0.1329
     13 C11        -0.7985    9.4230   -1.9706 C.3       1 <0>        -0.0100
     14 H1         -0.6821   10.0571   -2.8495 H         1 <0>         0.0868
     15 C12        -1.2916    8.0505   -2.3677 C.2       1 <0>        -0.1608
     16 C13        -0.2890    7.2134   -2.4634 C.2       1 <0>        -0.1396
     17 C14         1.0192    7.9126   -2.1509 C.3       1 <0>        -0.0930
     18 C15         0.5792    9.1558   -1.3272 C.3       1 <0>        -0.1200
     19 H2          1.2606   10.0025   -1.4113 H         1 <0>         0.0988
     20 C16         0.3697    8.7062    0.1209 C.3       1 <0>         0.1425
     21 H3          1.3305    8.4399    0.5614 H         1 <0>         0.1041
     22 N2         -0.2330    9.7968    0.8876 N.pl3     1 <0>        -0.6221
     23 C17        -0.5444    7.5083    0.1476 C.ar      1 <0>        -0.0935
     24 C18        -1.8912    7.6735    0.4331 C.ar      1 <0>        -0.0724
     25 C19        -2.7396    6.5880    0.4617 C.ar      1 <0>        -0.1417
     26 C20        -2.2476    5.3121    0.2030 C.ar      1 <0>         0.1452
     27 C21        -0.8849    5.1468   -0.0856 C.ar      1 <0>        -0.1028
     28 C22        -0.0385    6.2529   -0.1112 C.ar      1 <0>        -0.0486
     29 C23        -0.6768    3.7044   -0.3097 C.ar      1 <0>        -0.1035
     30 C24         0.4400    2.9349   -0.6272 C.ar      1 <0>        -0.0621
     31 C25         0.3119    1.5708   -0.7758 C.ar      1 <0>        -0.1535
     32 C26        -0.9234    0.9631   -0.6105 C.ar      1 <0>        -0.0849
     33 C27        -2.0374    1.7131   -0.3014 C.ar      1 <0>        -0.1449
     34 C28        -1.9272    3.0913   -0.1421 C.ar      1 <0>         0.1436
     35 N3         -2.8555    4.0700    0.1646 N.pl3     1 <0>        -0.5053
     36 C29        -4.2785    3.8261    0.4135 C.3       1 <0>         0.1102
     37 C30        -5.0501    3.9199   -0.9044 C.3       1 <0>        -0.1705
     38 Cl1        -1.9979   11.0066    2.8801 Cl        1 <0>        -0.0544
     39 H4         -6.3754   10.3790   -6.9170 H         1 <0>         0.0556
     40 H5         -6.2515    8.6269   -6.6288 H         1 <0>         0.0550
     41 H6         -7.8148    9.4537   -6.4269 H         1 <0>         0.0599
     42 H7         -6.7655    8.9852   -4.2296 H         1 <0>         0.0699
     43 H8         -6.8894   10.7373   -4.5178 H         1 <0>         0.0710
     44 H9         -4.5303   10.7786   -5.2805 H         1 <0>         0.0974
     45 H10        -4.4064    9.0265   -4.9923 H         1 <0>         0.0970
     46 H11        -2.5748   10.3718   -3.5010 H         1 <0>         0.4110
     47 H12        -4.8396   11.4525   -1.0105 H         1 <0>         0.1553
     48 H13        -4.3020   11.7193    1.3787 H         1 <0>         0.1387
     49 H14        -2.3257    7.7957   -2.5471 H         1 <0>         0.1178
     50 H15        -0.3813    6.1705   -2.7284 H         1 <0>         0.1246
     51 H16         1.5198    8.2185   -3.0695 H         1 <0>         0.0784
     52 H17         1.6665    7.2678   -1.5564 H         1 <0>         0.0774
     53 H18         0.4091   10.5692    0.9836 H         1 <0>         0.3658
     54 H19        -2.2786    8.6613    0.6343 H         1 <0>         0.1445
     55 H20        -3.7870    6.7274    0.6851 H         1 <0>         0.1143
     56 H21         1.0109    6.1269   -0.3329 H         1 <0>         0.1223
     57 H22         1.4033    3.4058   -0.7569 H         1 <0>         0.1227
     58 H23         1.1771    0.9728   -1.0216 H         1 <0>         0.1250
     59 H24        -1.0141   -0.1065   -0.7293 H         1 <0>         0.1267
     60 H25        -2.9958    1.2305   -0.1788 H         1 <0>         0.1197
     61 H26        -4.4074    2.8313    0.8400 H         1 <0>         0.0860
     62 H27        -4.6585    4.5725    1.1110 H         1 <0>         0.0860
     63 H28        -4.9212    4.9146   -1.3309 H         1 <0>         0.0603
     64 H29        -4.6701    3.1734   -1.6018 H         1 <0>         0.0611
     65 H30        -6.1088    3.7384   -0.7192 H         1 <0>         0.0738
@<TRIPOS>BOND
     1    1    2 1
     2    1   39 1
     3    1   40 1
     4    1   41 1
     5    2    3 1
     6    2   42 1
     7    2   43 1
     8    3    4 1
     9    3   44 1
    10    3   45 1
    11    4    5 2
    12    4    6 am
    13    6    7 1
    14    6   46 1
    15    7   12 ar
    16    7    8 ar
    17    8    9 ar
    18    8   47 1
    19    9   10 ar
    20    9   48 1
    21   10   11 ar
    22   10   38 1
    23   11   22 1
    24   11   12 ar
    25   12   13 1
    26   13   14 1
    27   13   18 1
    28   13   15 1
    29   15   16 2
    30   15   49 1
    31   16   17 1
    32   16   50 1
    33   17   18 1
    34   17   51 1
    35   17   52 1
    36   18   19 1
    37   18   20 1
    38   20   21 1
    39   20   22 1
    40   20   23 1
    41   22   53 1
    42   23   28 ar
    43   23   24 ar
    44   24   25 ar
    45   24   54 1
    46   25   26 ar
    47   25   55 1
    48   26   35 1
    49   26   27 ar
    50   27   28 ar
    51   27   29 1
    52   28   56 1
    53   29   34 ar
    54   29   30 ar
    55   30   31 ar
    56   30   57 1
    57   31   32 ar
    58   31   58 1
    59   32   33 ar
    60   32   59 1
    61   33   34 ar
    62   33   60 1
    63   34   35 1
    64   35   36 1
    65   36   37 1
    66   36   61 1
    67   36   62 1
    68   37   63 1
    69   37   64 1
    70   37   65 1
@<TRIPOS>MOLECULE
ZINC20664819
   56    58     0     0     0
SMALL
USER_CHARGES
N-[2-chloro-5-(trifluoromethyl)phenyl]-5-[[(1S,2R,3S)-2,3-dimethylcyclohexyl]sulfamoyl]-2-fluoro-benzamide
@<TRIPOS>ATOM
      1 C1         -1.4884    3.6201    2.4775 C.3       1 <0>        -0.1530
      2 C2         -0.7663    3.1197    1.2249 C.3       1 <0>        -0.0837
      3 H1         -1.2949    3.4780    0.3292 H         1 <0>         0.0706
      4 C3          0.6684    3.6509    1.2167 C.3       1 <0>        -0.1179
      5 C4          1.3905    3.1505   -0.0359 C.3       1 <0>        -0.1177
      6 C5          1.4131    1.6206   -0.0346 C.3       1 <0>        -0.1355
      7 C6         -0.0217    1.0894   -0.0264 C.3       1 <0>         0.1642
      8 H2         -0.0280   -0.0099   -0.0639 H         1 <0>         0.0727
      9 C7         -0.7437    1.5898    1.2262 C.3       1 <0>        -0.0908
     10 H3         -0.2150    1.2315    2.1218 H         1 <0>         0.0861
     11 C8         -2.1785    1.0586    1.2344 C.3       1 <0>        -0.1561
     12 N1         -0.7258    1.5663   -1.2193 N.pl3     1 <0>        -1.1112
     13 S1         -0.8011    0.6145   -2.5724 S.o2      1 <0>         2.6904
     14 O1         -1.5624    1.3336   -3.5329 O.2       1 <0>        -0.9517
     15 O2          0.5234    0.1682   -2.8291 O.2       1 <0>        -0.9463
     16 C9         -1.7416   -0.8150   -2.1521 C.ar      1 <0>        -0.7037
     17 C10        -3.1152   -0.8131   -2.3267 C.ar      1 <0>         0.0407
     18 C11        -3.8620   -1.9292   -2.0001 C.ar      1 <0>        -0.1775
     19 C12        -3.2402   -3.0571   -1.4958 C.ar      1 <0>         0.2202
     20 C13        -1.8532   -3.0645   -1.3174 C.ar      1 <0>        -0.1930
     21 C14        -1.1068   -1.9335   -1.6558 C.ar      1 <0>         0.0403
     22 C15        -1.1806   -4.2638   -0.7792 C.2       1 <0>         0.5662
     23 O3         -1.8329   -5.2482   -0.4899 O.2       1 <0>        -0.4966
     24 N2          0.1563   -4.2672   -0.6087 N.am      1 <0>        -0.6793
     25 C16         0.7826   -5.3667   -0.0118 C.ar      1 <0>         0.1620
     26 C17         0.2954   -6.6485   -0.2307 C.ar      1 <0>        -0.0626
     27 C18         0.9196   -7.7325    0.3550 C.ar      1 <0>        -0.1590
     28 C19         2.0214   -7.5419    1.1688 C.ar      1 <0>        -0.0736
     29 C20         2.5063   -6.2668    1.3939 C.ar      1 <0>        -0.0893
     30 C21         1.8902   -5.1780    0.8060 C.ar      1 <0>        -0.0351
     31 Cl1         2.4989   -3.5771    1.0894 Cl        1 <0>        -0.0454
     32 C22         0.3949   -9.1243    0.1127 C.3       1 <0>         0.5109
     33 F1          1.1807  -10.0471    0.8113 F         1 <0>        -0.1737
     34 F2         -0.9288   -9.2077    0.5577 F         1 <0>        -0.1702
     35 F3          0.4457   -9.4101   -1.2559 F         1 <0>        -0.1731
     36 F4         -3.9703   -4.1483   -1.1771 F         1 <0>        -0.0996
     37 H4         -1.5047    4.7200    2.4766 H         1 <0>         0.0561
     38 H5         -0.9597    3.2619    3.3732 H         1 <0>         0.0556
     39 H6         -2.5199    3.2381    2.4833 H         1 <0>         0.0590
     40 H7          0.6521    4.7508    1.2157 H         1 <0>         0.0640
     41 H8          1.1971    3.2928    2.1124 H         1 <0>         0.0633
     42 H9          0.8618    3.5087   -0.9316 H         1 <0>         0.0672
     43 H10         2.4220    3.5325   -0.0417 H         1 <0>         0.0639
     44 H11         1.9322    1.2608   -0.9352 H         1 <0>         0.0801
     45 H12         1.9418    1.2624    0.8610 H         1 <0>         0.0732
     46 H13        -2.1623   -0.0413    1.2353 H         1 <0>         0.0536
     47 H14        -2.7072    1.4168    0.3387 H         1 <0>         0.0567
     48 H15        -2.6975    1.4184    2.1350 H         1 <0>         0.0650
     49 H16        -1.3415    2.4764   -1.1675 H         1 <0>         0.4417
     50 H17        -3.6054    0.0649   -2.7204 H         1 <0>         0.1590
     51 H18        -4.9330   -1.9206   -2.1386 H         1 <0>         0.1587
     52 H19        -0.0347   -1.9338   -1.5251 H         1 <0>         0.1487
     53 H20         0.7551   -3.4055   -0.9388 H         1 <0>         0.4391
     54 H21        -0.5681   -6.7981   -0.8619 H         1 <0>         0.1603
     55 H22         2.5044   -8.3910    1.6292 H         1 <0>         0.1524
     56 H23         3.3669   -6.1213    2.0300 H         1 <0>         0.1535
@<TRIPOS>BOND
     1    1    2 1
     2    1   37 1
     3    1   38 1
     4    1   39 1
     5    2    3 1
     6    2    9 1
     7    2    4 1
     8    4    5 1
     9    4   40 1
    10    4   41 1
    11    5    6 1
    12    5   42 1
    13    5   43 1
    14    6    7 1
    15    6   44 1
    16    6   45 1
    17    7    8 1
    18    7    9 1
    19    7   12 1
    20    9   10 1
    21    9   11 1
    22   11   46 1
    23   11   47 1
    24   11   48 1
    25   12   13 1
    26   12   49 1
    27   13   14 2
    28   13   15 2
    29   13   16 1
    30   16   21 ar
    31   16   17 ar
    32   17   18 ar
    33   17   50 1
    34   18   19 ar
    35   18   51 1
    36   19   20 ar
    37   19   36 1
    38   20   21 ar
    39   20   22 1
    40   21   52 1
    41   22   23 2
    42   22   24 am
    43   24   25 1
    44   24   53 1
    45   25   30 ar
    46   25   26 ar
    47   26   27 ar
    48   26   54 1
    49   27   28 ar
    50   27   32 1
    51   28   29 ar
    52   28   55 1
    53   29   30 ar
    54   29   56 1
    55   30   31 1
    56   32   33 1
    57   32   34 1
    58   32   35 1
@<TRIPOS>MOLECULE
ZINC21253886
   70    74     0     0     0
SMALL
USER_CHARGES
(6S,9R)-9-(4-ethylphenyl)-6-(3-methoxy-2-propoxy-phenyl)-5,6,8,9,10,11-hexahydrobenzo[c][1,5]benzodiazepin-7-one
@<TRIPOS>ATOM
      1 C1          0.3655   -4.5149   -4.3526 C.3       1 <0>        -0.1515
      2 C2         -1.0156   -3.9658   -3.9892 C.3       1 <0>        -0.1189
      3 C3         -0.9485   -3.2802   -2.6230 C.3       1 <0>         0.0643
      4 O1         -2.2384   -2.7674   -2.2836 O.3       1 <0>        -0.3170
      5 C4         -2.3427   -2.0848   -1.1120 C.ar      1 <0>         0.0870
      6 C5         -2.7538   -2.7388    0.0384 C.ar      1 <0>        -0.0490
      7 C6         -2.8647   -2.0422    1.2273 C.ar      1 <0>        -0.1282
      8 C7         -2.5608   -0.6943    1.2733 C.ar      1 <0>        -0.0870
      9 C8         -2.1446   -0.0371    0.1305 C.ar      1 <0>        -0.1995
     10 C9         -2.0313   -0.7294   -1.0645 C.ar      1 <0>         0.1041
     11 O2         -1.6219   -0.0844   -2.1896 O.3       1 <0>        -0.3077
     12 C10        -1.3251    1.3081   -2.0674 C.3       1 <0>         0.0225
     13 C11        -3.0859   -4.2080   -0.0079 C.3       1 <0>         0.2963
     14 H1         -2.3689   -4.8067   -0.5888 H         1 <0>         0.0913
     15 C12        -3.0908   -4.7416    1.4042 C.2       1 <0>        -0.3105
     16 C13        -4.1756   -5.1327    2.0956 C.2       1 <0>         0.2746
     17 C14        -4.0377   -5.6646    3.5119 C.3       1 <0>        -0.1041
     18 C15        -2.8635   -4.9845    4.2134 C.3       1 <0>        -0.0348
     19 H2         -3.0320   -3.9006    4.2954 H         1 <0>         0.0868
     20 C16        -1.5975   -5.2857    3.4021 C.3       1 <0>        -0.1599
     21 C17        -1.8076   -4.8079    1.9965 C.2       1 <0>         0.3999
     22 O3         -0.8416   -4.4660    1.3428 O.2       1 <0>        -0.4724
     23 C18        -2.7179   -5.5299    5.6107 C.ar      1 <0>        -0.0857
     24 C19        -2.4870   -6.8788    5.8057 C.ar      1 <0>        -0.1100
     25 C20        -2.3491   -7.3783    7.0872 C.ar      1 <0>        -0.1153
     26 C21        -2.4513   -6.5304    8.1742 C.ar      1 <0>        -0.0801
     27 C22        -2.6874   -5.1824    7.9795 C.ar      1 <0>        -0.1152
     28 C23        -2.8210   -4.6822    6.6978 C.ar      1 <0>        -0.1087
     29 C24        -2.3047   -7.0756    9.5715 C.3       1 <0>        -0.0892
     30 C25        -3.6763   -7.5011   10.0994 C.3       1 <0>        -0.1484
     31 N1         -5.4454   -5.1105    1.6165 N.pl3     1 <0>        -0.6968
     32 C26        -6.0228   -4.0427    0.9397 C.ar      1 <0>         0.1171
     33 C27        -7.0898   -3.3279    1.4555 C.ar      1 <0>        -0.1159
     34 C28        -7.6483   -2.3068    0.7055 C.ar      1 <0>        -0.1247
     35 C29        -7.1461   -2.0064   -0.5476 C.ar      1 <0>        -0.1102
     36 C30        -6.0671   -2.7082   -1.0568 C.ar      1 <0>        -0.1222
     37 C31        -5.4923   -3.7157   -0.2992 C.ar      1 <0>         0.1744
     38 N2         -4.3358   -4.3731   -0.7188 N.pl3     1 <0>        -0.7735
     39 H3          0.3173   -5.0078   -5.3348 H         1 <0>         0.0624
     40 H4          0.6822   -5.2436   -3.5918 H         1 <0>         0.0568
     41 H5          1.0899   -3.6881   -4.3924 H         1 <0>         0.0563
     42 H6         -1.3323   -3.2371   -4.7500 H         1 <0>         0.0707
     43 H7         -1.7401   -4.7926   -3.9494 H         1 <0>         0.0694
     44 H8         -0.6318   -4.0089   -1.8623 H         1 <0>         0.0532
     45 H9         -0.2240   -2.4534   -2.6628 H         1 <0>         0.0505
     46 H10        -3.1899   -2.5520    2.1222 H         1 <0>         0.1181
     47 H11        -2.6484   -0.1536    2.2041 H         1 <0>         0.1236
     48 H12        -1.9074    1.0158    0.1691 H         1 <0>         0.1291
     49 H13        -1.0083    1.7026   -3.0442 H         1 <0>         0.1016
     50 H14        -0.5158    1.4476   -1.3356 H         1 <0>         0.0549
     51 H15        -2.2228    1.8459   -1.7284 H         1 <0>         0.0557
     52 H16        -4.9619   -5.4596    4.0721 H         1 <0>         0.0907
     53 H17        -3.8611   -6.7499    3.4804 H         1 <0>         0.0930
     54 H18        -0.7407   -4.7628    3.8520 H         1 <0>         0.0971
     55 H19        -1.4088   -6.3694    3.4058 H         1 <0>         0.1022
     56 H20        -2.4109   -7.5419    4.9566 H         1 <0>         0.1214
     57 H21        -2.1643   -8.4315    7.2393 H         1 <0>         0.1214
     58 H22        -2.7672   -4.5200    8.8287 H         1 <0>         0.1214
     59 H23        -3.0055   -3.6290    6.5457 H         1 <0>         0.1214
     60 H24        -1.6314   -7.9454    9.5569 H         1 <0>         0.0726
     61 H25        -1.8849   -6.2979   10.2264 H         1 <0>         0.0724
     62 H26        -3.5693   -7.8990   11.1193 H         1 <0>         0.0592
     63 H27        -4.0961   -8.2788    9.4445 H         1 <0>         0.0559
     64 H28        -4.3495   -6.6313   10.1139 H         1 <0>         0.0559
     65 H29        -6.1002   -5.9837    1.7533 H         1 <0>         0.4252
     66 H30        -7.4831   -3.5645    2.4331 H         1 <0>         0.1228
     67 H31        -8.4799   -1.7424    1.1009 H         1 <0>         0.1225
     68 H32        -7.5984   -1.2190   -1.1323 H         1 <0>         0.1205
     69 H33        -5.6767   -2.4723   -2.0357 H         1 <0>         0.1243
     70 H34        -4.3833   -5.0246   -1.6038 H         1 <0>         0.4159
@<TRIPOS>BOND
     1    1    2 1
     2    1   39 1
     3    1   40 1
     4    1   41 1
     5    2    3 1
     6    2   42 1
     7    2   43 1
     8    3    4 1
     9    3   44 1
    10    3   45 1
    11    4    5 1
    12    5   10 ar
    13    5    6 ar
    14    6    7 ar
    15    6   13 1
    16    7    8 ar
    17    7   46 1
    18    8    9 ar
    19    8   47 1
    20    9   10 ar
    21    9   48 1
    22   10   11 1
    23   11   12 1
    24   12   49 1
    25   12   50 1
    26   12   51 1
    27   13   14 1
    28   13   38 1
    29   13   15 1
    30   15   21 1
    31   15   16 2
    32   16   17 1
    33   16   31 1
    34   17   18 1
    35   17   52 1
    36   17   53 1
    37   18   19 1
    38   18   20 1
    39   18   23 1
    40   20   21 1
    41   20   54 1
    42   20   55 1
    43   21   22 2
    44   23   28 ar
    45   23   24 ar
    46   24   25 ar
    47   24   56 1
    48   25   26 ar
    49   25   57 1
    50   26   27 ar
    51   26   29 1
    52   27   28 ar
    53   27   58 1
    54   28   59 1
    55   29   30 1
    56   29   60 1
    57   29   61 1
    58   30   62 1
    59   30   63 1
    60   30   64 1
    61   31   32 1
    62   31   65 1
    63   32   37 ar
    64   32   33 ar
    65   33   34 ar
    66   33   66 1
    67   34   35 ar
    68   34   67 1
    69   35   36 ar
    70   35   68 1
    71   36   37 ar
    72   36   69 1
    73   37   38 1
    74   38   70 1
@<TRIPOS>MOLECULE
ZINC43758508
   82    85     0     0     0
SMALL
USER_CHARGES

@<TRIPOS>ATOM
      1 C1         -0.0602    1.0414   -0.0102 C.3       1 <0>        -0.1463
      2 C2         -0.0302   -0.4849   -0.1127 C.3       1 <0>        -0.0611
      3 H1         -1.0496   -0.8704   -0.0942 H         1 <0>         0.0808
      4 C3          0.7422   -1.0514    1.0507 C.2       1 <0>        -0.1415
      5 C4          0.1271   -1.7679    1.9587 C.2       1 <0>        -0.1492
      6 C5          0.8995   -2.3344    3.1221 C.3       1 <0>        -0.0559
      7 H2          1.9470   -2.0450    3.0382 H         1 <0>         0.0703
      8 C6          0.7897   -3.8604    3.1126 C.3       1 <0>        -0.1467
      9 C7          0.3232   -1.7897    4.4306 C.3       1 <0>        -0.0877
     10 C8          1.1074   -2.3649    5.6117 C.3       1 <0>        -0.1512
     11 C9          0.4330   -0.2637    4.4401 C.3       1 <0>        -0.1464
     12 C10         0.6465   -0.8949   -1.4222 C.3       1 <0>        -0.0776
     13 H3          1.6894   -0.5780   -1.4196 H         1 <0>         0.0715
     14 C11        -0.0938   -0.2688   -2.6190 C.3       1 <0>        -0.1234
     15 C12        -0.5624   -1.4421   -3.5109 C.3       1 <0>        -0.1172
     16 C13         0.3988   -2.5836   -3.1337 C.3       1 <0>        -0.1024
     17 H4          1.3644   -2.3881   -3.6000 H         1 <0>         0.0750
     18 C14         0.5571   -2.4338   -1.6098 C.3       1 <0>        -0.0344
     19 C15        -0.7334   -2.8803   -0.9148 C.3       1 <0>        -0.0925
     20 C16        -1.1632   -4.2307   -1.3936 C.2       1 <0>        -0.1459
     21 C17        -0.8863   -4.6875   -2.5763 C.2       1 <0>        -0.0925
     22 C18        -0.0739   -3.9345   -3.5669 C.3       1 <0>         0.1930
     23 C19        -0.8336   -3.8791   -4.8935 C.3       1 <0>        -0.1434
     24 C20        -1.2235   -5.2986   -5.3151 C.3       1 <0>        -0.1480
     25 C21        -2.1704   -5.9016   -4.2707 C.3       1 <0>         0.1565
     26 C22        -1.4040   -6.0552   -2.9809 C.3       1 <0>         0.0059
     27 C23        -2.3458   -6.5876   -1.9055 C.3       1 <0>        -0.1074
     28 C24        -3.5308   -5.6356   -1.7338 C.3       1 <0>        -0.1538
     29 C25        -4.2824   -5.5241   -3.0625 C.3       1 <0>         0.0978
     30 H5         -5.1352   -4.8558   -2.9433 H         1 <0>         0.0770
     31 C26        -3.3595   -4.9555   -4.0840 C.3       1 <0>        -0.1481
     32 O1         -4.7418   -6.8174   -3.4607 O.3       1 <0>        -0.3218
     33 C27        -5.9602   -7.1884   -3.0370 C.2       1 <0>         0.4535
     34 O2         -6.6150   -6.4400   -2.3508 O.2       1 <0>        -0.5184
     35 C28        -6.5114   -8.5385   -3.4173 C.3       1 <0>        -0.1470
     36 C29        -0.2266   -7.0161   -3.1573 C.3       1 <0>        -0.1275
     37 O3         -2.6348   -7.1760   -4.7205 O.3       1 <0>        -0.5362
     38 O4          1.0932   -4.7218   -3.8121 O.3       1 <0>        -0.5529
     39 C30         1.7953   -3.1592   -1.0792 C.3       1 <0>        -0.1310
     40 H6          0.9592    1.4269   -0.0286 H         1 <0>         0.0539
     41 H7         -0.6188    1.4511   -0.8517 H         1 <0>         0.0582
     42 H8         -0.5422    1.3335    0.9227 H         1 <0>         0.0539
     43 H9          1.8029   -0.8667    1.1360 H         1 <0>         0.1048
     44 H10        -0.9335   -1.9526    1.8735 H         1 <0>         0.1063
     45 H11        -0.2578   -4.1498    3.1965 H         1 <0>         0.0542
     46 H12         1.2003   -4.2484    2.1804 H         1 <0>         0.0552
     47 H13         1.3484   -4.2701    3.9541 H         1 <0>         0.0583
     48 H14        -0.7243   -2.0791    4.5145 H         1 <0>         0.0685
     49 H15         2.1549   -2.0755    5.5278 H         1 <0>         0.0532
     50 H16         0.6968   -1.9769    6.5439 H         1 <0>         0.0533
     51 H17         1.0291   -3.4520    5.6050 H         1 <0>         0.0576
     52 H18         1.4805    0.0257    4.3562 H         1 <0>         0.0517
     53 H19        -0.1257    0.1460    3.5986 H         1 <0>         0.0568
     54 H20         0.0224    0.1243    5.3723 H         1 <0>         0.0511
     55 H21        -0.9545    0.3011   -2.2691 H         1 <0>         0.0687
     56 H22         0.5812    0.3790   -3.1783 H         1 <0>         0.0632
     57 H23        -1.5919   -1.7142   -3.2780 H         1 <0>         0.0663
     58 H24        -0.4606   -1.1871   -4.5657 H         1 <0>         0.0659
     59 H25        -0.5649   -2.9193    0.1614 H         1 <0>         0.0855
     60 H26        -1.5219   -2.1582   -1.1265 H         1 <0>         0.0759
     61 H27        -1.7316   -4.8566   -0.7216 H         1 <0>         0.1221
     62 H28        -1.7332   -3.2757   -4.7724 H         1 <0>         0.0732
     63 H29        -0.1973   -3.4344   -5.6587 H         1 <0>         0.0677
     64 H30        -1.7240   -5.2654   -6.2828 H         1 <0>         0.0608
     65 H31        -0.3271   -5.9140   -5.3909 H         1 <0>         0.0862
     66 H32        -2.7114   -7.5715   -2.1992 H         1 <0>         0.0793
     67 H33        -1.8076   -6.6697   -0.9612 H         1 <0>         0.0627
     68 H34        -4.2016   -6.0236   -0.9673 H         1 <0>         0.0657
     69 H35        -3.1675   -4.6516   -1.4371 H         1 <0>         0.0929
     70 H36        -2.9967   -3.9726   -3.7833 H         1 <0>         0.0989
     71 H37        -3.9036   -4.8675   -5.0244 H         1 <0>         0.0694
     72 H38        -5.8519   -9.3197   -3.0393 H         1 <0>         0.0999
     73 H39        -7.5044   -8.6605   -2.9846 H         1 <0>         0.0982
     74 H40        -6.5765   -8.6117   -4.5028 H         1 <0>         0.0986
     75 H41         0.3749   -7.0245   -2.2482 H         1 <0>         0.0486
     76 H42        -0.6031   -8.0201   -3.3531 H         1 <0>         0.0531
     77 H43         0.3874   -6.6884   -3.9961 H         1 <0>         0.0785
     78 H44        -3.1185   -7.1455   -5.5572 H         1 <0>         0.3705
     79 H45         1.7100   -4.3251   -4.4424 H         1 <0>         0.3662
     80 H46         1.8923   -2.9770   -0.0089 H         1 <0>         0.0581
     81 H47         1.6937   -4.2296   -1.2578 H         1 <0>         0.0637
     82 H48         2.6820   -2.7877   -1.5928 H         1 <0>         0.0494
@<TRIPOS>BOND
     1    1    2 1
     2    1   40 1
     3    1   41 1
     4    1   42 1
     5    2    3 1
     6    2    4 1
     7    2   12 1
     8    4    5 2
     9    4   43 1
    10    5    6 1
    11    5   44 1
    12    6    7 1
    13    6    8 1
    14    6    9 1
    15    8   45 1
    16    8   46 1
    17    8   47 1
    18    9   10 1
    19    9   11 1
    20    9   48 1
    21   10   49 1
    22   10   50 1
    23   10   51 1
    24   11   52 1
    25   11   53 1
    26   11   54 1
    27   12   13 1
    28   12   18 1
    29   12   14 1
    30   14   15 1
    31   14   55 1
    32   14   56 1
    33   15   16 1
    34   15   57 1
    35   15   58 1
    36   16   17 1
    37   16   22 1
    38   16   18 1
    39   18   19 1
    40   18   39 1
    41   19   20 1
    42   19   59 1
    43   19   60 1
    44   20   21 2
    45   20   61 1
    46   21   26 1
    47   21   22 1
    48   22   23 1
    49   22   38 1
    50   23   24 1
    51   23   62 1
    52   23   63 1
    53   24   25 1
    54   24   64 1
    55   24   65 1
    56   25   31 1
    57   25   26 1
    58   25   37 1
    59   26   27 1
    60   26   36 1
    61   27   28 1
    62   27   66 1
    63   27   67 1
    64   28   29 1
    65   28   68 1
    66   28   69 1
    67   29   30 1
    68   29   31 1
    69   29   32 1
    70   31   70 1
    71   31   71 1
    72   32   33 1
    73   33   34 2
    74   33   35 1
    75   35   72 1
    76   35   73 1
    77   35   74 1
    78   36   75 1
    79   36   76 1
    80   36   77 1
    81   37   78 1
    82   38   79 1
    83   39   80 1
    84   39   81 1
    85   39   82 1
@<TRIPOS>MOLECULE
ZINC02332813
   48    52     0     0     0
SMALL
USER_CHARGES
3-chloro-N-[[2-(5-chloro-1-naphthyl)benzooxazol-5-yl]thiocarbamoyl]benzamide
@<TRIPOS>ATOM
      1 C1        -15.6284    2.5537   -0.2342 C.ar      1 <0>        -0.1090
      2 C2        -14.2584    2.4414   -0.3534 C.ar      1 <0>        -0.0868
      3 C3        -13.6154    2.9451   -1.4854 C.ar      1 <0>        -0.1238
      4 C4        -14.3654    3.5500   -2.4958 C.ar      1 <0>        -0.0454
      5 C5        -15.7361    3.6512   -2.3668 C.ar      1 <0>        -0.0405
      6 C6        -16.3665    3.1543   -1.2381 C.ar      1 <0>        -0.0787
      7 Cl1       -16.6714    4.4023   -3.6217 Cl        1 <0>        -0.0509
      8 C7        -12.1477    2.8332   -1.6165 C.2       1 <0>         0.5360
      9 O1        -11.5911    3.2681   -2.6054 O.2       1 <0>        -0.3931
     10 N1        -11.4265    2.2487   -0.6394 N.am      1 <0>        -0.6371
     11 C8        -10.0879    2.1466   -0.7590 C.2       1 <0>         0.5054
     12 S1         -9.3038    2.7593   -2.1520 S.2       1 <0>        -0.4671
     13 N2         -9.3667    1.5622    0.2181 N.pl3     1 <0>        -0.6175
     14 C9         -7.9678    1.5641    0.1526 C.ar      1 <0>         0.1141
     15 C10        -7.2545    0.4258    0.5219 C.ar      1 <0>        -0.0875
     16 C11        -5.8771    0.4149    0.4623 C.ar      1 <0>        -0.0844
     17 C12        -5.1929    1.5417    0.0327 C.ar      1 <0>         0.0177
     18 C13        -5.9047    2.6935   -0.3414 C.ar      1 <0>         0.0350
     19 C14        -7.3003    2.6959   -0.2781 C.ar      1 <0>        -0.0078
     20 N3         -4.9832    3.6191   -0.7109 N.2       1 <0>        -0.4493
     21 C15        -3.7877    3.0984   -0.5820 C.2       1 <0>         0.2960
     22 O2         -3.8825    1.8311   -0.1360 O.3       1 <0>        -0.2035
     23 C16        -2.5244    3.7954   -0.8864 C.ar      1 <0>        -0.0251
     24 C17        -2.3839    4.5088   -2.0674 C.ar      1 <0>        -0.0415
     25 C18        -1.1963    5.1671   -2.3601 C.ar      1 <0>        -0.1153
     26 C19        -0.1396    5.1317   -1.5000 C.ar      1 <0>        -0.0746
     27 C20        -0.2374    4.4215   -0.2915 C.ar      1 <0>        -0.0498
     28 C21        -1.4398    3.7439    0.0246 C.ar      1 <0>        -0.0112
     29 C22        -1.5341    3.0312    1.2277 C.ar      1 <0>        -0.1052
     30 C23        -0.4737    3.0068    2.0831 C.ar      1 <0>        -0.0938
     31 C24         0.7105    3.6718    1.7751 C.ar      1 <0>        -0.1027
     32 C25         0.8396    4.3704    0.6123 C.ar      1 <0>        -0.0197
     33 Cl2         2.3243    5.1931    0.2486 Cl        1 <0>        -0.0543
     34 H1        -16.1263    2.1676    0.6430 H         1 <0>         0.1435
     35 H2        -13.6842    1.9682    0.4294 H         1 <0>         0.1296
     36 H3        -13.8744    3.9380   -3.3760 H         1 <0>         0.1526
     37 H4        -17.4391    3.2358   -1.1416 H         1 <0>         0.1432
     38 H5        -11.8708    1.9016    0.1499 H         1 <0>         0.4102
     39 H6         -9.8166    1.1403    0.9668 H         1 <0>         0.4114
     40 H7         -7.7839   -0.4539    0.8567 H         1 <0>         0.1458
     41 H8         -5.3311   -0.4714    0.7500 H         1 <0>         0.1451
     42 H9         -7.8550    3.5772   -0.5643 H         1 <0>         0.1573
     43 H10        -3.2062    4.5533   -2.7663 H         1 <0>         0.1416
     44 H11        -1.1085    5.7165   -3.2858 H         1 <0>         0.1414
     45 H12         0.7745    5.6509   -1.7477 H         1 <0>         0.1406
     46 H13        -2.4448    2.5072    1.4777 H         1 <0>         0.1325
     47 H14        -0.5513    2.4602    3.0113 H         1 <0>         0.1375
     48 H15         1.5382    3.6335    2.4678 H         1 <0>         0.1392
@<TRIPOS>BOND
     1    1    6 ar
     2    1    2 ar
     3    1   34 1
     4    2    3 ar
     5    2   35 1
     6    3    4 ar
     7    3    8 1
     8    4    5 ar
     9    4   36 1
    10    5    6 ar
    11    5    7 1
    12    6   37 1
    13    8    9 2
    14    8   10 am
    15   10   11 1
    16   10   38 1
    17   11   12 2
    18   11   13 1
    19   13   14 1
    20   13   39 1
    21   14   19 ar
    22   14   15 ar
    23   15   16 ar
    24   15   40 1
    25   16   17 ar
    26   16   41 1
    27   17   22 1
    28   17   18 ar
    29   18   19 ar
    30   18   20 1
    31   19   42 1
    32   20   21 2
    33   21   22 1
    34   21   23 1
    35   23   28 ar
    36   23   24 ar
    37   24   25 ar
    38   24   43 1
    39   25   26 ar
    40   25   44 1
    41   26   27 ar
    42   26   45 1
    43   27   32 ar
    44   27   28 ar
    45   28   29 ar
    46   29   30 ar
    47   29   46 1
    48   30   31 ar
    49   30   47 1
    50   31   32 ar
    51   31   48 1
    52   32   33 1
@<TRIPOS>MOLECULE
ZINC14461367
   71    75     0     0     0
SMALL
USER_CHARGES
(3aS,4R,9bS)-N-cyclohexyl-4-(4-diethylaminophenyl)-3a,4,5,9b-tetrahydro-3H-cyclopenta[c]quinoline-8-sulfonamide
@<TRIPOS>ATOM
      1 C1          4.6590    0.2155   -5.5118 C.3       1 <0>        -0.1731
      2 C2          3.5152    0.9674   -6.1954 C.3       1 <0>         0.1174
      3 N1          2.2367    0.3607   -5.8167 N.pl3     1 <0>        -0.6262
      4 C3          1.6755   -0.7275   -6.6212 C.3       1 <0>         0.1178
      5 C4          0.7815   -0.1431   -7.7168 C.3       1 <0>        -0.1727
      6 C5          1.5528    0.8196   -4.6887 C.ar      1 <0>         0.2257
      7 C6          0.3403    0.2454   -4.3282 C.ar      1 <0>        -0.1977
      8 C7         -0.3331    0.7013   -3.2120 C.ar      1 <0>        -0.0599
      9 C8          0.1983    1.7282   -2.4535 C.ar      1 <0>        -0.1638
     10 C9          1.4023    2.3059   -2.8127 C.ar      1 <0>        -0.0530
     11 C10         2.0837    1.8510   -3.9245 C.ar      1 <0>        -0.1980
     12 C11        -0.5394    2.2231   -1.2361 C.3       1 <0>         0.2104
     13 H1         -1.6159    2.1497   -1.3907 H         1 <0>         0.0991
     14 C12        -0.1293    1.4227   -0.0129 C.3       1 <0>        -0.1020
     15 H2         -0.5877    1.8035    0.8998 H         1 <0>         0.0939
     16 C13        -0.2422   -0.1048   -0.1051 C.3       1 <0>        -0.0900
     17 C14         0.8660   -0.5536    0.8494 C.2       1 <0>        -0.1656
     18 C15         1.7999    0.3861    0.9346 C.2       1 <0>        -0.1496
     19 C16         1.4256    1.5095    0.0377 C.3       1 <0>        -0.0395
     20 H3          1.8014    1.2844   -0.9604 H         1 <0>         0.1015
     21 C17         1.7919    2.9094    0.3434 C.ar      1 <0>        -0.1516
     22 C18         2.8894    3.2366    1.1099 C.ar      1 <0>         0.0277
     23 C19         3.1978    4.5615    1.3576 C.ar      1 <0>        -0.7277
     24 C20         2.4035    5.5653    0.8337 C.ar      1 <0>         0.0274
     25 C21         1.2996    5.2481    0.0696 C.ar      1 <0>        -0.2160
     26 C22         0.9772    3.9195   -0.1802 C.ar      1 <0>         0.2736
     27 N2         -0.1594    3.6221   -0.9418 N.pl3     1 <0>        -0.7319
     28 S1          4.6026    4.9708    2.3392 S.o2      1 <0>         2.6951
     29 O1          5.4919    3.8656    2.2564 O.2       1 <0>        -0.9621
     30 O2          4.9873    6.2876    1.9686 O.2       1 <0>        -0.9652
     31 N3          4.0934    5.0518    3.9129 N.pl3     1 <0>        -1.1150
     32 C23         3.6027    3.8472    4.5870 C.3       1 <0>         0.1510
     33 C24         2.0776    3.7882    4.4795 C.3       1 <0>        -0.1406
     34 C25         1.5650    2.5301    5.1834 C.3       1 <0>        -0.1164
     35 C26         1.9713    2.5694    6.6580 C.3       1 <0>        -0.1227
     36 C27         3.4963    2.6285    6.7654 C.3       1 <0>        -0.1189
     37 C28         4.0089    3.8865    6.0615 C.3       1 <0>        -0.1228
     38 H4          4.5360    0.2724   -4.4302 H         1 <0>         0.0587
     39 H5          4.6455   -0.8286   -5.8245 H         1 <0>         0.0561
     40 H6          5.6102    0.6669   -5.7935 H         1 <0>         0.0651
     41 H7          3.6383    0.9105   -7.2769 H         1 <0>         0.0736
     42 H8          3.5287    2.0115   -5.8826 H         1 <0>         0.0749
     43 H9          2.4853   -1.2965   -7.0781 H         1 <0>         0.0736
     44 H10         1.0852   -1.3845   -5.9825 H         1 <0>         0.0755
     45 H11         1.3719    0.5138   -8.3555 H         1 <0>         0.0558
     46 H12         0.3640   -0.9528   -8.3153 H         1 <0>         0.0646
     47 H13        -0.0282    0.4259   -7.2599 H         1 <0>         0.0582
     48 H14        -0.0750   -0.5569   -4.9200 H         1 <0>         0.1227
     49 H15        -1.2756    0.2550   -2.9310 H         1 <0>         0.1213
     50 H16         1.8121    3.1109   -2.2208 H         1 <0>         0.1201
     51 H17         3.0261    2.2996   -4.2020 H         1 <0>         0.1210
     52 H18        -1.2179   -0.4459    0.2411 H         1 <0>         0.0721
     53 H19        -0.0471   -0.4503   -1.1203 H         1 <0>         0.0875
     54 H20         0.8858   -1.4963    1.3761 H         1 <0>         0.1286
     55 H21         2.6844    0.3411    1.5526 H         1 <0>         0.1296
     56 H22         3.5114    2.4544    1.5195 H         1 <0>         0.1341
     57 H23         2.6480    6.6000    1.0236 H         1 <0>         0.1368
     58 H24         0.6830    6.0361   -0.3368 H         1 <0>         0.1288
     59 H25        -0.7077    4.3463   -1.2823 H         1 <0>         0.4047
     60 H26         4.1201    5.8968    4.3885 H         1 <0>         0.4172
     61 H27         4.0346    2.9650    4.1145 H         1 <0>         0.0909
     62 H28         1.6456    4.6704    4.9520 H         1 <0>         0.0693
     63 H29         1.7882    3.7601    3.4290 H         1 <0>         0.0711
     64 H30         1.9970    1.6479    4.7110 H         1 <0>         0.0645
     65 H31         0.4785    2.4881    5.1069 H         1 <0>         0.0645
     66 H32         1.6061    1.6732    7.1595 H         1 <0>         0.0634
     67 H33         1.5393    3.4517    7.1305 H         1 <0>         0.0626
     68 H34         3.9283    1.7463    6.2930 H         1 <0>         0.0660
     69 H35         3.7858    2.6565    7.8159 H         1 <0>         0.0674
     70 H36         5.0954    3.9286    6.1381 H         1 <0>         0.0717
     71 H37         3.5769    4.7687    6.5340 H         1 <0>         0.0697
@<TRIPOS>BOND
     1    1    2 1
     2    1   38 1
     3    1   39 1
     4    1   40 1
     5    2    3 1
     6    2   41 1
     7    2   42 1
     8    3    4 1
     9    3    6 1
    10    4    5 1
    11    4   43 1
    12    4   44 1
    13    5   45 1
    14    5   46 1
    15    5   47 1
    16    6   11 ar
    17    6    7 ar
    18    7    8 ar
    19    7   48 1
    20    8    9 ar
    21    8   49 1
    22    9   10 ar
    23    9   12 1
    24   10   11 ar
    25   10   50 1
    26   11   51 1
    27   12   13 1
    28   12   27 1
    29   12   14 1
    30   14   15 1
    31   14   19 1
    32   14   16 1
    33   16   17 1
    34   16   52 1
    35   16   53 1
    36   17   18 2
    37   17   54 1
    38   18   19 1
    39   18   55 1
    40   19   20 1
    41   19   21 1
    42   21   26 ar
    43   21   22 ar
    44   22   23 ar
    45   22   56 1
    46   23   24 ar
    47   23   28 1
    48   24   25 ar
    49   24   57 1
    50   25   26 ar
    51   25   58 1
    52   26   27 1
    53   27   59 1
    54   28   29 2
    55   28   30 2
    56   28   31 1
    57   31   32 1
    58   31   60 1
    59   32   37 1
    60   32   33 1
    61   32   61 1
    62   33   34 1
    63   33   62 1
    64   33   63 1
    65   34   35 1
    66   34   64 1
    67   34   65 1
    68   35   36 1
    69   35   66 1
    70   35   67 1
    71   36   37 1
    72   36   68 1
    73   36   69 1
    74   37   70 1
    75   37   71 1
@<TRIPOS>MOLECULE
ZINC20718392
   67    72     0     0     0
SMALL
USER_CHARGES
(3aR,4S,9bR)-4-(2-methoxy-1-naphthyl)-N-phenethyl-3a,4,5,9b-tetrahydro-3H-cyclopenta[c]quinoline-8-sulfonamide
@<TRIPOS>ATOM
      1 C1         -1.7407    1.4610   -0.6219 C.3       1 <0>         0.0140
      2 O1         -1.8254    1.7935    0.7653 O.3       1 <0>        -0.2836
      3 C2         -1.3609    3.0154    1.1364 C.ar      1 <0>         0.1463
      4 C3         -0.8321    3.8756    0.1688 C.ar      1 <0>        -0.1914
      5 C4         -0.3596    5.1044    0.5092 C.ar      1 <0>        -0.0623
      6 C5         -0.4013    5.5202    1.8516 C.ar      1 <0>        -0.0830
      7 C6          0.0778    6.7834    2.2382 C.ar      1 <0>        -0.0914
      8 C7          0.0218    7.1537    3.5467 C.ar      1 <0>        -0.1283
      9 C8         -0.5046    6.2982    4.5128 C.ar      1 <0>        -0.1004
     10 C9         -0.9779    5.0676    4.1758 C.ar      1 <0>        -0.1221
     11 C10        -0.9367    4.6500    2.8341 C.ar      1 <0>        -0.0034
     12 C11        -1.4216    3.3895    2.4484 C.ar      1 <0>        -0.1468
     13 C12        -2.0001    2.4528    3.4775 C.3       1 <0>         0.2068
     14 H1         -2.5999    3.0551    4.1757 H         1 <0>         0.0998
     15 C13        -0.8888    1.6877    4.1737 C.3       1 <0>        -0.0885
     16 H2         -1.4237    1.1039    4.9373 H         1 <0>         0.1023
     17 C14         0.2463    2.5129    4.7947 C.3       1 <0>        -0.0955
     18 C15         1.4241    1.5418    4.6933 C.2       1 <0>        -0.1696
     19 C16         1.2252    0.6897    3.6949 C.2       1 <0>        -0.1687
     20 C17        -0.0597    1.0283    3.0313 C.3       1 <0>        -0.0091
     21 H3          0.2428    1.5779    2.1277 H         1 <0>         0.0958
     22 C18        -0.9058   -0.0017    2.3912 C.ar      1 <0>        -0.1577
     23 C19        -0.3881   -1.1732    1.8825 C.ar      1 <0>         0.0197
     24 C20        -1.2153   -2.0890    1.2592 C.ar      1 <0>        -0.7431
     25 C21        -2.5695   -1.8316    1.1456 C.ar      1 <0>         0.0234
     26 C22        -3.0989   -0.6659    1.6595 C.ar      1 <0>        -0.2260
     27 C23        -2.2772    0.2587    2.2929 C.ar      1 <0>         0.3289
     28 N1         -2.8395    1.4273    2.8204 N.pl3     1 <0>        -0.7316
     29 S1         -0.5446   -3.5832    0.6094 S.o2      1 <0>         2.6953
     30 O2          0.6563   -3.8348    1.3262 O.2       1 <0>        -0.9641
     31 O3         -1.6122   -4.5196    0.5593 O.2       1 <0>        -0.9672
     32 N2         -0.1056   -3.2816   -0.9586 N.pl3     1 <0>        -1.1268
     33 C24         0.9663   -2.3259   -1.2483 C.3       1 <0>         0.1251
     34 C25         1.4282   -2.5010   -2.6963 C.3       1 <0>        -0.0858
     35 C26         2.5308   -1.5178   -2.9943 C.ar      1 <0>        -0.0847
     36 C27         2.2240   -0.2655   -3.4927 C.ar      1 <0>        -0.1158
     37 C28         3.2351    0.6379   -3.7619 C.ar      1 <0>        -0.1191
     38 C29         4.5536    0.2855   -3.5417 C.ar      1 <0>        -0.1215
     39 C30         4.8606   -0.9685   -3.0478 C.ar      1 <0>        -0.1168
     40 C31         3.8492   -1.8704   -2.7746 C.ar      1 <0>        -0.1137
     41 H4         -2.1482    0.4520   -0.7826 H         1 <0>         0.1001
     42 H5         -0.6885    1.4867   -0.9415 H         1 <0>         0.0534
     43 H6         -2.3202    2.1884   -1.2093 H         1 <0>         0.0534
     44 H7         -0.7983    3.5593   -0.8633 H         1 <0>         0.1295
     45 H8          0.0457    5.7585   -0.2486 H         1 <0>         0.1305
     46 H9          0.4881    7.4572    1.5006 H         1 <0>         0.1263
     47 H10         0.3904    8.1254    3.8407 H         1 <0>         0.1235
     48 H11        -0.5371    6.6164    5.5444 H         1 <0>         0.1247
     49 H12        -1.3827    4.4150    4.9351 H         1 <0>         0.1287
     50 H13         0.3916    3.4340    4.2112 H         1 <0>         0.0953
     51 H14        -0.0141    2.7728    5.8314 H         1 <0>         0.0711
     52 H15         2.3389    1.4738    5.3004 H         1 <0>         0.1301
     53 H16         1.9644   -0.0985    3.4890 H         1 <0>         0.1326
     54 H17         0.6688   -1.3768    1.9711 H         1 <0>         0.1282
     55 H18        -3.2141   -2.5450    0.6537 H         1 <0>         0.1314
     56 H19        -4.1572   -0.4708    1.5689 H         1 <0>         0.1234
     57 H20        -3.9264    1.5756    2.7394 H         1 <0>         0.4225
     58 H21        -0.7283   -3.6741   -1.7760 H         1 <0>         0.4391
     59 H22         0.5929   -1.3013   -1.1039 H         1 <0>         0.0598
     60 H23         1.8124   -2.5069   -0.5691 H         1 <0>         0.0833
     61 H24         1.8016   -3.5256   -2.8407 H         1 <0>         0.0847
     62 H25         0.5821   -2.3200   -3.3755 H         1 <0>         0.0801
     63 H26         1.1943    0.0084   -3.6686 H         1 <0>         0.1199
     64 H27         2.9953    1.6178   -4.1474 H         1 <0>         0.1207
     65 H28         5.3437    0.9901   -3.7552 H         1 <0>         0.1212
     66 H29         5.8906   -1.2439   -2.8758 H         1 <0>         0.1229
     67 H30         4.0891   -2.8503   -2.3890 H         1 <0>         0.1241
@<TRIPOS>BOND
     1    1    2 1
     2    1   41 1
     3    1   42 1
     4    1   43 1
     5    2    3 1
     6    3   12 ar
     7    3    4 ar
     8    4    5 ar
     9    4   44 1
    10    5    6 ar
    11    5   45 1
    12    6   11 ar
    13    6    7 ar
    14    7    8 ar
    15    7   46 1
    16    8    9 ar
    17    8   47 1
    18    9   10 ar
    19    9   48 1
    20   10   11 ar
    21   10   49 1
    22   11   12 ar
    23   12   13 1
    24   13   14 1
    25   13   28 1
    26   13   15 1
    27   15   16 1
    28   15   20 1
    29   15   17 1
    30   17   18 1
    31   17   50 1
    32   17   51 1
    33   18   19 2
    34   18   52 1
    35   19   20 1
    36   19   53 1
    37   20   21 1
    38   20   22 1
    39   22   27 ar
    40   22   23 ar
    41   23   24 ar
    42   23   54 1
    43   24   25 ar
    44   24   29 1
    45   25   26 ar
    46   25   55 1
    47   26   27 ar
    48   26   56 1
    49   27   28 1
    50   28   57 1
    51   29   30 2
    52   29   31 2
    53   29   32 1
    54   32   33 1
    55   32   58 1
    56   33   34 1
    57   33   59 1
    58   33   60 1
    59   34   35 1
    60   34   61 1
    61   34   62 1
    62   35   40 ar
    63   35   36 ar
    64   36   37 ar
    65   36   63 1
    66   37   38 ar
    67   37   64 1
    68   38   39 ar
    69   38   65 1
    70   39   40 ar
    71   39   66 1
    72   40   67 1
@<TRIPOS>MOLECULE
ZINC31829209
   62    65     0     0     0
SMALL
USER_CHARGES
N-[2-[(N'Z)-N'-[(4-tert-butylphenyl)methylene]hydrazino]-4-(p-tolyl)thiazol-5-yl]-4-fluoro-benzamide
@<TRIPOS>ATOM
      1 C1         -6.0950    0.2683   -2.7957 C.3       1 <0>        -0.1193
      2 C2         -4.7723    0.7978   -2.3048 C.ar      1 <0>        -0.0839
      3 C3         -4.6995    2.0639   -1.7517 C.ar      1 <0>        -0.1146
      4 C4         -3.4915    2.5544   -1.3004 C.ar      1 <0>        -0.0828
      5 C5         -2.3418    1.7707   -1.4027 C.ar      1 <0>        -0.0109
      6 C6         -2.4208    0.4969   -1.9662 C.ar      1 <0>        -0.1282
      7 C7         -3.6356    0.0160   -2.4094 C.ar      1 <0>        -0.1138
      8 C8         -1.0420    2.2912   -0.9208 C.2       1 <0>         0.0801
      9 C9         -0.1229    1.4468   -0.3445 C.2       1 <0>         0.0196
     10 S1          1.2006    2.5927    0.0185 S.3       1 <0>         0.1539
     11 C10         0.4088    4.0633   -0.6169 C.2       1 <0>         0.3370
     12 N1         -0.7476    3.5853   -1.0354 N.2       1 <0>        -0.5391
     13 N2          0.8846    5.3640   -0.6595 N.pl3     1 <0>        -0.5343
     14 N3          2.1572    5.6612   -0.1548 N.2       1 <0>        -0.2300
     15 C11         2.5565    6.8949   -0.0858 C.2       1 <0>         0.1134
     16 C12         1.5691    7.9896   -0.0717 C.ar      1 <0>        -0.1070
     17 C13         1.9812    9.3093   -0.2736 C.ar      1 <0>        -0.0833
     18 C14         1.0511   10.3277   -0.2639 C.ar      1 <0>        -0.1175
     19 C15        -0.2859   10.0462   -0.0448 C.ar      1 <0>        -0.0519
     20 C16        -0.7006    8.7422    0.1611 C.ar      1 <0>        -0.1065
     21 C17         0.2175    7.7130    0.1493 C.ar      1 <0>        -0.1347
     22 C18        -1.2952   11.1652   -0.0299 C.3       1 <0>        -0.0329
     23 C19        -1.9904   11.2068    1.3323 C.3       1 <0>        -0.1420
     24 C20        -0.5842   12.4966   -0.2805 C.3       1 <0>        -0.1482
     25 C21        -2.3355   10.9283   -1.1265 C.3       1 <0>        -0.1421
     26 N4         -0.1993    0.0748   -0.1126 N.am      1 <0>        -0.6232
     27 C22         0.8325   -0.5689    0.4684 C.2       1 <0>         0.5540
     28 O1          1.8301    0.0475    0.7904 O.2       1 <0>        -0.5024
     29 C23         0.7515   -2.0229    0.7142 C.ar      1 <0>        -0.1442
     30 C24        -0.3954   -2.7323    0.3507 C.ar      1 <0>        -0.0564
     31 C25        -0.4634   -4.0902    0.5776 C.ar      1 <0>        -0.1577
     32 C26         0.5995   -4.7499    1.1755 C.ar      1 <0>         0.1320
     33 C27         1.7382   -4.0495    1.5435 C.ar      1 <0>        -0.1584
     34 C28         1.8193   -2.6925    1.3161 C.ar      1 <0>        -0.0240
     35 F1          0.5256   -6.0801    1.3999 F         1 <0>        -0.1300
     36 H1         -6.8767    1.0245   -2.6307 H         1 <0>         0.0662
     37 H2         -6.3500   -0.6489   -2.2447 H         1 <0>         0.0711
     38 H3         -6.0238    0.0429   -3.8700 H         1 <0>         0.0710
     39 H4         -5.5903    2.6695   -1.6727 H         1 <0>         0.1247
     40 H5         -3.4359    3.5430   -0.8692 H         1 <0>         0.1278
     41 H6         -1.5335   -0.1129   -2.0519 H         1 <0>         0.1206
     42 H7         -3.6987   -0.9714   -2.8424 H         1 <0>         0.1267
     43 H8          0.2631    6.1632   -1.0896 H         1 <0>         0.4328
     44 H9          3.6315    7.1232   -0.0379 H         1 <0>         0.1965
     45 H10         3.0249    9.5309   -0.4406 H         1 <0>         0.1331
     46 H11         1.3676   11.3479   -0.4239 H         1 <0>         0.1337
     47 H12        -1.7457    8.5298    0.3318 H         1 <0>         0.1268
     48 H13        -0.1074    6.6958    0.3109 H         1 <0>         0.1404
     49 H14        -2.7271   12.0236    1.3432 H         1 <0>         0.0621
     50 H15        -1.2424   11.3772    2.1206 H         1 <0>         0.0579
     51 H16        -2.5015   10.2496    1.5125 H         1 <0>         0.0578
     52 H17        -1.3209   13.3134   -0.2696 H         1 <0>         0.0615
     53 H18        -0.0843   12.4667   -1.2599 H         1 <0>         0.0605
     54 H19         0.1638   12.6669    0.5079 H         1 <0>         0.0605
     55 H20        -3.0722   11.7451   -1.1156 H         1 <0>         0.0620
     56 H21        -2.8466    9.9711   -0.9464 H         1 <0>         0.0581
     57 H22        -1.8356   10.8984   -2.1059 H         1 <0>         0.0581
     58 H23        -1.1017   -0.4828   -0.4037 H         1 <0>         0.4401
     59 H24        -1.2255   -2.2187   -0.1114 H         1 <0>         0.1345
     60 H25        -1.3479   -4.6406    0.2925 H         1 <0>         0.1469
     61 H26         2.5632   -4.5683    2.0089 H         1 <0>         0.1476
     62 H27         2.7069   -2.1481    1.6025 H         1 <0>         0.1505
@<TRIPOS>BOND
     1    1    2 1
     2    1   36 1
     3    1   37 1
     4    1   38 1
     5    2    7 ar
     6    2    3 ar
     7    3    4 ar
     8    3   39 1
     9    4    5 ar
    10    4   40 1
    11    5    6 ar
    12    5    8 1
    13    6    7 ar
    14    6   41 1
    15    7   42 1
    16    8   12 1
    17    8    9 2
    18    9   10 1
    19    9   26 1
    20   10   11 1
    21   11   12 2
    22   11   13 1
    23   13   14 1
    24   13   43 1
    25   14   15 2
    26   15   16 1
    27   15   44 1
    28   16   21 ar
    29   16   17 ar
    30   17   18 ar
    31   17   45 1
    32   18   19 ar
    33   18   46 1
    34   19   20 ar
    35   19   22 1
    36   20   21 ar
    37   20   47 1
    38   21   48 1
    39   22   23 1
    40   22   24 1
    41   22   25 1
    42   23   49 1
    43   23   50 1
    44   23   51 1
    45   24   52 1
    46   24   53 1
    47   24   54 1
    48   25   55 1
    49   25   56 1
    50   25   57 1
    51   26   27 am
    52   26   58 1
    53   27   28 2
    54   27   29 1
    55   29   34 ar
    56   29   30 ar
    57   30   31 ar
    58   30   59 1
    59   31   32 ar
    60   31   60 1
    61   32   33 ar
    62   32   35 1
    63   33   34 ar
    64   33   61 1
    65   34   62 1
@<TRIPOS>MOLECULE
ZINC58846022
   64    68     0     0     0
SMALL
USER_CHARGES

@<TRIPOS>ATOM
      1 C1         -5.4543   -5.3860   -0.2263 C.3       1 <0>        -0.1160
      2 C2         -3.9855   -5.0537   -0.1696 C.ar      1 <0>        -0.0932
      3 C3         -3.5768   -3.7326   -0.1638 C.ar      1 <0>        -0.1039
      4 C4         -2.2316   -3.4246   -0.1119 C.ar      1 <0>        -0.1239
      5 C5         -1.2886   -4.4435   -0.0655 C.ar      1 <0>         0.1396
      6 C6         -1.7026   -5.7695   -0.0715 C.ar      1 <0>        -0.1470
      7 C7         -3.0496   -6.0705   -0.1178 C.ar      1 <0>        -0.0980
      8 N1          0.0728   -4.1355   -0.0134 N.pl3     1 <0>        -1.0589
      9 S1          1.0567   -4.9127    1.0683 S.o2      1 <0>         2.6921
     10 O1          0.8428   -6.3054    0.8841 O.2       1 <0>        -0.9537
     11 O2          2.3414   -4.3171    0.9494 O.2       1 <0>        -0.9561
     12 C8          0.4678   -4.5219    2.6823 C.ar      1 <0>        -0.7266
     13 C9          0.8730   -3.3525    3.2998 C.ar      1 <0>         0.0266
     14 C10         0.4156   -3.0527    4.5667 C.ar      1 <0>        -0.2126
     15 C11        -0.4521   -3.9218    5.2198 C.ar      1 <0>         0.2797
     16 C12        -0.8697   -5.0881    4.5973 C.ar      1 <0>        -0.1640
     17 C13        -0.4009   -5.3808    3.3244 C.ar      1 <0>         0.0350
     18 C14        -1.8299   -6.0245    5.2490 C.3       1 <0>        -0.0084
     19 H1         -2.5640   -6.3376    4.5066 H         1 <0>         0.0899
     20 C15        -1.1460   -7.2555    5.7865 C.2       1 <0>        -0.1616
     21 C16        -1.7107   -7.6354    6.9053 C.2       1 <0>        -0.1482
     22 C17        -2.8477   -6.7097    7.2781 C.3       1 <0>        -0.0992
     23 C18        -2.5762   -5.4360    6.4447 C.3       1 <0>        -0.0905
     24 H2         -3.5123   -4.9720    6.1338 H         1 <0>         0.0928
     25 C19        -1.7384   -4.4925    7.2828 C.3       1 <0>         0.2090
     26 H3         -2.4076   -3.8677    7.8743 H         1 <0>         0.0887
     27 N2         -0.8895   -3.6157    6.5030 N.pl3     1 <0>        -0.7203
     28 C20        -0.8930   -5.3109    8.2243 C.ar      1 <0>        -0.1414
     29 C21         0.2730   -5.8993    7.7704 C.ar      1 <0>        -0.0412
     30 C22         1.0496   -6.6504    8.6314 C.ar      1 <0>        -0.1591
     31 C23         0.6588   -6.8137    9.9525 C.ar      1 <0>         0.1398
     32 C24        -0.5113   -6.2219   10.4055 C.ar      1 <0>        -0.2149
     33 C25        -1.2817   -5.4674    9.5419 C.ar      1 <0>        -0.0703
     34 O3          1.4208   -7.5525   10.8013 O.3       1 <0>        -0.3111
     35 C26         1.0023   -7.6089   12.1665 C.3       1 <0>         0.0764
     36 C27         1.5691   -8.8699   12.8219 C.3       1 <0>        -0.1499
     37 C28         1.5157   -6.3735   12.9088 C.3       1 <0>        -0.1801
     38 H4         -5.8510   -5.4531    0.7867 H         1 <0>         0.0706
     39 H5         -5.9828   -4.6047   -0.7725 H         1 <0>         0.0666
     40 H6         -5.5915   -6.3407   -0.7341 H         1 <0>         0.0676
     41 H7         -4.3105   -2.9409   -0.2002 H         1 <0>         0.1259
     42 H8         -1.9130   -2.3926   -0.1077 H         1 <0>         0.1273
     43 H9         -0.9720   -6.5641   -0.0359 H         1 <0>         0.1552
     44 H10        -3.3724   -7.1011   -0.1181 H         1 <0>         0.1289
     45 H11         0.4418   -3.4664   -0.6109 H         1 <0>         0.4254
     46 H12         1.5454   -2.6766    2.7924 H         1 <0>         0.1371
     47 H13         0.7322   -2.1415    5.0523 H         1 <0>         0.1311
     48 H14        -0.7152   -6.2901    2.8339 H         1 <0>         0.1373
     49 H15        -0.3101   -7.7525    5.3167 H         1 <0>         0.1268
     50 H16        -1.4056   -8.4945    7.4844 H         1 <0>         0.1230
     51 H17        -3.8059   -7.1558    7.0118 H         1 <0>         0.0797
     52 H18        -2.8169   -6.4768    8.3425 H         1 <0>         0.0838
     53 H19        -0.5928   -2.7840    6.9044 H         1 <0>         0.4044
     54 H20         0.5768   -5.7719    6.7419 H         1 <0>         0.1256
     55 H21         1.9599   -7.1104    8.2763 H         1 <0>         0.1265
     56 H22        -0.8177   -6.3476   11.4335 H         1 <0>         0.1283
     57 H23        -2.1904   -5.0029    9.8952 H         1 <0>         0.1229
     58 H24        -0.0865   -7.6338   12.2121 H         1 <0>         0.0739
     59 H25         2.6579   -8.8450   12.7764 H         1 <0>         0.0676
     60 H26         1.2499   -8.9130   13.8633 H         1 <0>         0.0777
     61 H27         1.2033   -9.7500   12.2931 H         1 <0>         0.0653
     62 H28         1.1119   -5.4752   12.4419 H         1 <0>         0.0614
     63 H29         1.1965   -6.4166   13.9501 H         1 <0>         0.0726
     64 H30         2.6045   -6.3486   12.8633 H         1 <0>         0.0676
@<TRIPOS>BOND
     1    1    2 1
     2    1   38 1
     3    1   39 1
     4    1   40 1
     5    2    7 ar
     6    2    3 ar
     7    3    4 ar
     8    3   41 1
     9    4    5 ar
    10    4   42 1
    11    5    6 ar
    12    5    8 1
    13    6    7 ar
    14    6   43 1
    15    7   44 1
    16    8    9 1
    17    8   45 1
    18    9   10 2
    19    9   11 2
    20    9   12 1
    21   12   17 ar
    22   12   13 ar
    23   13   14 ar
    24   13   46 1
    25   14   15 ar
    26   14   47 1
    27   15   27 1
    28   15   16 ar
    29   16   17 ar
    30   16   18 1
    31   17   48 1
    32   18   19 1
    33   18   23 1
    34   18   20 1
    35   20   21 2
    36   20   49 1
    37   21   22 1
    38   21   50 1
    39   22   23 1
    40   22   51 1
    41   22   52 1
    42   23   24 1
    43   23   25 1
    44   25   26 1
    45   25   27 1
    46   25   28 1
    47   27   53 1
    48   28   33 ar
    49   28   29 ar
    50   29   30 ar
    51   29   54 1
    52   30   31 ar
    53   30   55 1
    54   31   32 ar
    55   31   34 1
    56   32   33 ar
    57   32   56 1
    58   33   57 1
    59   34   35 1
    60   35   36 1
    61   35   37 1
    62   35   58 1
    63   36   59 1
    64   36   60 1
    65   36   61 1
    66   37   62 1
    67   37   63 1
    68   37   64 1
@<TRIPOS>MOLECULE
ZINC08917316
   52    55     0     0     0
SMALL
USER_CHARGES
[4-(4-allyloxyphenyl)-2-amino-3-cyano-4H-chromen-7-yl] 2-bromobenzoate
@<TRIPOS>ATOM
      1 C1          4.5248   -0.9762    8.2289 C.2       1 <0>        -0.1686
      2 C2          3.6228   -1.3535    7.3570 C.2       1 <0>        -0.1589
      3 C3          3.3953   -0.5406    6.1085 C.3       1 <0>         0.0870
      4 O1          3.3063   -1.4141    4.9810 O.3       1 <0>        -0.3115
      5 C4          3.1007   -0.8369    3.7680 C.ar      1 <0>         0.1314
      6 C5          3.0043   -1.6254    2.6307 C.ar      1 <0>        -0.1489
      7 C6          2.7948   -1.0362    1.3989 C.ar      1 <0>        -0.0701
      8 C7          2.6813    0.3382    1.2990 C.ar      1 <0>        -0.1151
      9 C8          2.7827    1.1267    2.4302 C.ar      1 <0>        -0.0580
     10 C9          2.9865    0.5419    3.6651 C.ar      1 <0>        -0.2060
     11 C10         2.4528    0.9783   -0.0461 C.3       1 <0>         0.0880
     12 H1          2.4002    0.2031   -0.8106 H         1 <0>         0.1016
     13 C11         1.1557    1.7428   -0.0208 C.ar      1 <0>        -0.1131
     14 C12        -0.0417    1.0540   -0.1014 C.ar      1 <0>        -0.0592
     15 C13        -1.2407    1.7386   -0.0851 C.ar      1 <0>        -0.1270
     16 C14        -1.2479    3.1223    0.0247 C.ar      1 <0>         0.1177
     17 C15        -0.0508    3.8148    0.1055 C.ar      1 <0>        -0.1214
     18 C16         1.1546    3.1250    0.0827 C.ar      1 <0>         0.1306
     19 O2          2.3178    3.8174    0.1621 O.3       1 <0>        -0.2426
     20 C17         3.4661    3.2463   -0.2382 C.2       1 <0>         0.4392
     21 C18         3.5952    1.9037   -0.3575 C.2       1 <0>        -0.2756
     22 C19         4.8455    1.3546   -0.7887 C.1       1 <0>         0.2730
     23 N1          5.8373    0.9190   -1.1307 N.1       1 <0>        -0.4435
     24 N2          4.5404    4.0476   -0.5346 N.pl3     1 <0>        -0.8301
     25 O3         -2.4273    3.7972    0.0460 O.3       1 <0>        -0.2859
     26 C20        -3.1985    3.6468    1.1405 C.2       1 <0>         0.4951
     27 O4         -2.7838    3.0185    2.0941 O.2       1 <0>        -0.4495
     28 C21        -4.5476    4.2454    1.1811 C.ar      1 <0>        -0.1041
     29 C22        -5.0277    4.9684    0.0866 C.ar      1 <0>        -0.0550
     30 C23        -6.2885    5.5249    0.1312 C.ar      1 <0>        -0.1181
     31 C24        -7.0786    5.3688    1.2571 C.ar      1 <0>        -0.0743
     32 C25        -6.6107    4.6545    2.3449 C.ar      1 <0>        -0.1027
     33 C26        -5.3523    4.0867    2.3122 C.ar      1 <0>        -0.0391
     34 Br1        -4.7171    3.1030    3.7971 Br        1 <0>        -0.0038
     35 H2          5.1054   -0.0827    8.0530 H         1 <0>         0.0996
     36 H3          4.6878   -1.5587    9.1236 H         1 <0>         0.1092
     37 H4          3.0422   -2.2470    7.5328 H         1 <0>         0.1207
     38 H5          4.2267    0.1502    5.9682 H         1 <0>         0.0673
     39 H6          2.4673    0.0227    6.2058 H         1 <0>         0.0727
     40 H7          3.0932   -2.6989    2.7082 H         1 <0>         0.1317
     41 H8          2.7199   -1.6495    0.5131 H         1 <0>         0.1304
     42 H9          2.6985    2.2003    2.3489 H         1 <0>         0.1178
     43 H10         3.0612    1.1579    4.5491 H         1 <0>         0.1264
     44 H11        -0.0383   -0.0230   -0.1818 H         1 <0>         0.1439
     45 H12        -2.1727    1.1972   -0.1528 H         1 <0>         0.1370
     46 H13        -0.0548    4.8918    0.1859 H         1 <0>         0.1475
     47 H14         5.3764    3.6503   -0.8247 H         1 <0>         0.4261
     48 H15         4.4636    5.0112   -0.4540 H         1 <0>         0.4116
     49 H16        -4.4126    5.0915   -0.7925 H         1 <0>         0.1484
     50 H17        -6.6607    6.0837   -0.7147 H         1 <0>         0.1416
     51 H18        -8.0654    5.8067    1.2859 H         1 <0>         0.1417
     52 H19        -7.2324    4.5370    3.2201 H         1 <0>         0.1448
@<TRIPOS>BOND
     1    1    2 2
     2    1   35 1
     3    1   36 1
     4    2    3 1
     5    2   37 1
     6    3    4 1
     7    3   38 1
     8    3   39 1
     9    4    5 1
    10    5   10 ar
    11    5    6 ar
    12    6    7 ar
    13    6   40 1
    14    7    8 ar
    15    7   41 1
    16    8    9 ar
    17    8   11 1
    18    9   10 ar
    19    9   42 1
    20   10   43 1
    21   11   12 1
    22   11   21 1
    23   11   13 1
    24   13   18 ar
    25   13   14 ar
    26   14   15 ar
    27   14   44 1
    28   15   16 ar
    29   15   45 1
    30   16   17 ar
    31   16   25 1
    32   17   18 ar
    33   17   46 1
    34   18   19 1
    35   19   20 1
    36   20   21 2
    37   20   24 1
    38   21   22 1
    39   22   23 3
    40   24   47 1
    41   24   48 1
    42   25   26 1
    43   26   27 2
    44   26   28 1
    45   28   33 ar
    46   28   29 ar
    47   29   30 ar
    48   29   49 1
    49   30   31 ar
    50   30   50 1
    51   31   32 ar
    52   31   51 1
    53   32   33 ar
    54   32   52 1
    55   33   34 1
@<TRIPOS>MOLECULE
ZINC14039911
   50    51     0     0     0
SMALL
USER_CHARGES
(2R)-N'-[2-(2,4-dibromo-6-methyl-phenoxy)acetyl]-2-(4-ethylphenoxy)propanehydrazide
@<TRIPOS>ATOM
      1 C1          1.0439    0.0394    0.4025 C.3       1 <0>        -0.1481
      2 C2         -0.0070    1.0810    0.0132 C.3       1 <0>        -0.0828
      3 C3         -0.7141    1.5684    1.2515 C.ar      1 <0>        -0.1157
      4 C4         -1.8565    0.9261    1.6919 C.ar      1 <0>        -0.0768
      5 C5         -2.5033    1.3675    2.8300 C.ar      1 <0>        -0.1416
      6 C6         -2.0117    2.4629    3.5251 C.ar      1 <0>         0.1216
      7 C7         -0.8685    3.1091    3.0779 C.ar      1 <0>        -0.2079
      8 C8         -0.2224    2.6606    1.9422 C.ar      1 <0>        -0.0770
      9 O1         -2.6494    2.9025    4.6418 O.3       1 <0>        -0.2841
     10 C9         -2.1595    4.1055    5.2374 C.3       1 <0>         0.0815
     11 H1         -1.8151    4.7835    4.4565 H         1 <0>         0.1064
     12 C10        -0.9964    3.7739    6.1744 C.3       1 <0>        -0.1805
     13 C11        -3.2649    4.7637    6.0223 C.2       1 <0>         0.5208
     14 O2         -4.3366    4.2087    6.1427 O.2       1 <0>        -0.5089
     15 N1         -3.0626    5.9690    6.5904 N.am      1 <0>        -0.5160
     16 N2         -4.0903    6.5808    7.3201 N.am      1 <0>        -0.5186
     17 C12        -3.8880    7.7861    7.8882 C.2       1 <0>         0.5204
     18 O3         -2.8163    8.3411    7.7677 O.2       1 <0>        -0.5061
     19 C13        -4.9934    8.4443    8.6731 C.3       1 <0>         0.0555
     20 O4         -4.5387    9.7039    9.1718 O.3       1 <0>        -0.2932
     21 C14        -5.4209   10.4314    9.9068 C.ar      1 <0>         0.1292
     22 C15        -5.4811   10.2661   11.2827 C.ar      1 <0>        -0.0817
     23 C16        -6.3779   11.0067   12.0280 C.ar      1 <0>        -0.0654
     24 C17        -7.2161   11.9131   11.4034 C.ar      1 <0>        -0.0846
     25 C18        -7.1582   12.0800   10.0315 C.ar      1 <0>        -0.0574
     26 C19        -6.2586   11.3448    9.2824 C.ar      1 <0>        -0.1006
     27 Br1        -6.1742   11.5788    7.4078 Br        1 <0>        -0.0181
     28 Br2        -8.4421   12.9258   12.4267 Br        1 <0>        -0.0270
     29 C20        -4.5689    9.2788   11.9641 C.3       1 <0>        -0.1133
     30 H2          1.5553   -0.3131   -0.4932 H         1 <0>         0.0581
     31 H3          1.7683    0.4902    1.0808 H         1 <0>         0.0550
     32 H4          0.5568   -0.8008    0.8973 H         1 <0>         0.0558
     33 H5          0.4801    1.9212   -0.4816 H         1 <0>         0.0710
     34 H6         -0.7314    0.6302   -0.6651 H         1 <0>         0.0718
     35 H7         -2.2413    0.0761    1.1480 H         1 <0>         0.1305
     36 H8         -3.3929    0.8625    3.1763 H         1 <0>         0.1330
     37 H9         -0.4836    3.9619    3.6175 H         1 <0>         0.1297
     38 H10         0.6677    3.1634    1.5937 H         1 <0>         0.1258
     39 H11        -0.1969    3.2979    5.6067 H         1 <0>         0.0838
     40 H12        -0.6228    4.6916    6.6287 H         1 <0>         0.0815
     41 H13        -1.3408    3.0960    6.9553 H         1 <0>         0.0795
     42 H14        -2.2055    6.4129    6.4941 H         1 <0>         0.4347
     43 H15        -4.9474    6.1370    7.4164 H         1 <0>         0.4351
     44 H16        -5.8560    8.6000    8.0252 H         1 <0>         0.0967
     45 H17        -5.2770    7.8038    9.5082 H         1 <0>         0.0977
     46 H18        -6.4246   10.8783   13.0994 H         1 <0>         0.1478
     47 H19        -7.8136   12.7878    9.5458 H         1 <0>         0.1498
     48 H20        -3.6417    9.7766   12.2477 H         1 <0>         0.0847
     49 H21        -5.0586    8.8872   12.8557 H         1 <0>         0.0766
     50 H22        -4.3469    8.4584   11.2816 H         1 <0>         0.0712
@<TRIPOS>BOND
     1    1    2 1
     2    1   30 1
     3    1   31 1
     4    1   32 1
     5    2    3 1
     6    2   33 1
     7    2   34 1
     8    3    8 ar
     9    3    4 ar
    10    4    5 ar
    11    4   35 1
    12    5    6 ar
    13    5   36 1
    14    6    7 ar
    15    6    9 1
    16    7    8 ar
    17    7   37 1
    18    8   38 1
    19    9   10 1
    20   10   11 1
    21   10   12 1
    22   10   13 1
    23   12   39 1
    24   12   40 1
    25   12   41 1
    26   13   14 2
    27   13   15 am
    28   15   16 1
    29   15   42 1
    30   16   17 am
    31   16   43 1
    32   17   18 2
    33   17   19 1
    34   19   20 1
    35   19   44 1
    36   19   45 1
    37   20   21 1
    38   21   26 ar
    39   21   22 ar
    40   22   23 ar
    41   22   29 1
    42   23   24 ar
    43   23   46 1
    44   24   25 ar
    45   24   28 1
    46   25   26 ar
    47   25   47 1
    48   26   27 1
    49   29   48 1
    50   29   49 1
    51   29   50 1
@<TRIPOS>MOLECULE
ZINC23261986
   57    60     0     0     0
SMALL
USER_CHARGES
2-[(4S)-4-(4-chlorophenyl)-4-ethyl-2,5-dioxo-imidazolidin-1-yl]-N-[(R)-(4-chlorophenyl)-phenyl-methyl]acetamide
@<TRIPOS>ATOM
      1 C1         -0.8892    3.2521   -2.4640 C.3       1 <0>        -0.1605
      2 C2         -1.2439    4.0731   -1.2225 C.3       1 <0>        -0.1171
      3 C3         -0.7274    3.3570    0.0271 C.3       1 <0>         0.1604
      4 C4          0.7866    3.2836    0.0122 C.2       1 <0>         0.5420
      5 O1          1.5648    4.2131    0.0092 O.2       1 <0>        -0.4553
      6 N1          1.0875    1.9700    0.0023 N.am      1 <0>        -0.5601
      7 C5         -0.0144    1.2112    0.0087 C.2       1 <0>         0.7216
      8 O2          0.0021   -0.0041    0.0020 O.2       1 <0>        -0.5366
      9 N2         -1.1427    1.9437    0.0176 N.am      1 <0>        -0.7249
     10 C6          2.4526    1.4385   -0.0129 C.3       1 <0>         0.0964
     11 C7          2.9079    1.2637   -1.4388 C.2       1 <0>         0.5084
     12 O3          2.1651    1.5545   -2.3524 O.2       1 <0>        -0.5196
     13 N3          4.1404    0.7843   -1.6988 N.am      1 <0>        -0.7322
     14 C8          4.5829    0.6144   -3.0850 C.3       1 <0>         0.2349
     15 H1          4.1474    1.4290   -3.6823 H         1 <0>         0.1070
     16 C9          4.1120   -0.7202   -3.6026 C.ar      1 <0>        -0.0924
     17 C10         4.1575   -1.8339   -2.7850 C.ar      1 <0>        -0.1006
     18 C11         3.7210   -3.0571   -3.2582 C.ar      1 <0>        -0.1190
     19 C12         3.2487   -3.1689   -4.5526 C.ar      1 <0>        -0.1160
     20 C13         3.2081   -2.0563   -5.3720 C.ar      1 <0>        -0.1177
     21 C14         3.6397   -0.8320   -4.8970 C.ar      1 <0>        -0.1012
     22 C15         6.0877    0.6730   -3.1426 C.ar      1 <0>        -0.0812
     23 C16         6.8411    0.0683   -2.1538 C.ar      1 <0>        -0.0994
     24 C17         8.2213    0.1169   -2.2092 C.ar      1 <0>        -0.1038
     25 C18         8.8487    0.7805   -3.2484 C.ar      1 <0>        -0.0319
     26 C19         8.0940    1.3904   -4.2347 C.ar      1 <0>        -0.1036
     27 C20         6.7140    1.3363   -4.1813 C.ar      1 <0>        -0.0909
     28 Cl1        10.5821    0.8476   -3.3152 Cl        1 <0>        -0.0651
     29 C21        -1.2123    4.0523    1.2731 C.ar      1 <0>        -0.0944
     30 C22        -1.3975    5.4222    1.2722 C.ar      1 <0>        -0.0785
     31 C23        -1.8476    6.0597    2.4130 C.ar      1 <0>        -0.1073
     32 C24        -2.1019    5.3280    3.5593 C.ar      1 <0>        -0.0243
     33 C25        -1.9109    3.9577    3.5613 C.ar      1 <0>        -0.1084
     34 C26        -1.4662    3.3206    2.4182 C.ar      1 <0>        -0.0876
     35 Cl2        -2.6600    6.1289    4.9949 Cl        1 <0>        -0.0621
     36 H2         -1.2605    3.7669   -3.3624 H         1 <0>         0.0657
     37 H3         -1.3553    2.2583   -2.3918 H         1 <0>         0.0614
     38 H4          0.2032    3.1409   -2.5302 H         1 <0>         0.0652
     39 H5         -0.7778    5.0669   -1.2947 H         1 <0>         0.0896
     40 H6         -2.3363    4.1844   -1.1562 H         1 <0>         0.0901
     41 H7         -2.2117    1.6846    0.0188 H         1 <0>         0.4720
     42 H8          3.1248    2.1397    0.5033 H         1 <0>         0.1280
     43 H9          2.4731    0.4658    0.5004 H         1 <0>         0.1305
     44 H10         4.8141    0.5206   -0.8702 H         1 <0>         0.4211
     45 H11         4.5307   -1.7475   -1.7752 H         1 <0>         0.1166
     46 H12         3.7531   -3.9265   -2.6182 H         1 <0>         0.1223
     47 H13         2.9119   -4.1255   -4.9238 H         1 <0>         0.1220
     48 H14         2.8394   -2.1436   -6.3833 H         1 <0>         0.1232
     49 H15         3.6082    0.0372   -5.5373 H         1 <0>         0.1210
     50 H16         6.3511   -0.4459   -1.3402 H         1 <0>         0.1305
     51 H17         8.8098   -0.3593   -1.4390 H         1 <0>         0.1370
     52 H18         8.5832    1.9083   -5.0465 H         1 <0>         0.1373
     53 H19         6.1248    1.8120   -4.9514 H         1 <0>         0.1348
     54 H20        -1.1948    5.9939    0.3786 H         1 <0>         0.1405
     55 H21        -1.9966    7.1294    2.4109 H         1 <0>         0.1403
     56 H22        -2.1089    3.3860    4.4559 H         1 <0>         0.1383
     57 H23        -1.3167    2.2510    2.4197 H         1 <0>         0.1337
@<TRIPOS>BOND
     1    1    2 1
     2    1   36 1
     3    1   37 1
     4    1   38 1
     5    2    3 1
     6    2   39 1
     7    2   40 1
     8    3    9 1
     9    3    4 1
    10    3   29 1
    11    4    5 2
    12    4    6 am
    13    6    7 am
    14    6   10 1
    15    7    8 2
    16    7    9 am
    17    9   41 1
    18   10   11 1
    19   10   42 1
    20   10   43 1
    21   11   12 2
    22   11   13 am
    23   13   14 1
    24   13   44 1
    25   14   15 1
    26   14   16 1
    27   14   22 1
    28   16   21 ar
    29   16   17 ar
    30   17   18 ar
    31   17   45 1
    32   18   19 ar
    33   18   46 1
    34   19   20 ar
    35   19   47 1
    36   20   21 ar
    37   20   48 1
    38   21   49 1
    39   22   27 ar
    40   22   23 ar
    41   23   24 ar
    42   23   50 1
    43   24   25 ar
    44   24   51 1
    45   25   26 ar
    46   25   28 1
    47   26   27 ar
    48   26   52 1
    49   27   53 1
    50   29   34 ar
    51   29   30 ar
    52   30   31 ar
    53   30   54 1
    54   31   32 ar
    55   31   55 1
    56   32   33 ar
    57   32   35 1
    58   33   34 ar
    59   33   56 1
    60   34   57 1
@<TRIPOS>MOLECULE
ZINC36546460
   66    69     0     0     0
SMALL
USER_CHARGES

@<TRIPOS>ATOM
      1 C1          0.7479   -0.0807    0.4040 C.3       1 <0>        -0.1636
      2 C2          1.1127   -1.5448    0.1509 C.3       1 <0>         0.1707
      3 C3          2.1478   -1.9982    1.1824 C.3       1 <0>        -0.1624
      4 C4         -0.1422   -2.4115    0.2729 C.3       1 <0>        -0.1571
      5 N1          1.6725   -1.6829   -1.1959 N.am      1 <0>        -0.7132
      6 C5          2.7877   -1.0062   -1.5347 C.2       1 <0>         0.5158
      7 O1          3.3279   -0.2830   -0.7247 O.2       1 <0>        -0.5138
      8 C6          3.3635   -1.1482   -2.9201 C.3       1 <0>         0.2080
      9 H1          2.5976   -0.9099   -3.6581 H         1 <0>         0.1486
     10 C7          3.8355   -2.5646   -3.1252 C.2       1 <0>        -0.0295
     11 C8          3.1699   -3.5273   -3.7882 C.2       1 <0>        -0.1839
     12 C9          3.9723   -4.6902   -3.7363 C.2       1 <0>        -0.2129
     13 C10         5.0803   -4.3685   -3.0447 C.2       1 <0>        -0.0218
     14 O2          4.9946   -3.0782   -2.6821 O.3       1 <0>        -0.1501
     15 N2          4.4940   -0.2294   -3.0756 N.am      1 <0>        -0.5377
     16 C11         5.6647   -0.4284   -2.3345 C.ar      1 <0>         0.1392
     17 C12         5.7853    0.1185   -1.0639 C.ar      1 <0>        -0.0540
     18 C13         6.9417   -0.0796   -0.3351 C.ar      1 <0>        -0.1225
     19 C14         7.9793   -0.8217   -0.8690 C.ar      1 <0>        -0.0935
     20 C15         7.8634   -1.3677   -2.1339 C.ar      1 <0>        -0.1205
     21 C16         6.7065   -1.1786   -2.8663 C.ar      1 <0>         0.0023
     22 Cl1         6.5580   -1.8711   -4.4513 Cl        1 <0>        -0.0576
     23 C17         4.4068    0.8074   -3.9322 C.2       1 <0>         0.5150
     24 O3          3.4337    0.9235   -4.6469 O.2       1 <0>        -0.5096
     25 C18         5.5184    1.8226   -4.0022 C.3       1 <0>         0.2197
     26 C19         6.6093    1.3114   -4.9076 C.ar      1 <0>        -0.0743
     27 C20         6.2848    0.5942   -6.0439 C.ar      1 <0>        -0.0990
     28 C21         7.2854    0.1253   -6.8745 C.ar      1 <0>        -0.1181
     29 C22         8.6105    0.3741   -6.5689 C.ar      1 <0>        -0.1058
     30 C23         8.9349    1.0921   -5.4331 C.ar      1 <0>        -0.1214
     31 C24         7.9341    1.5646   -4.6048 C.ar      1 <0>        -0.0744
     32 C25         4.9800    3.1203   -4.5473 C.ar      1 <0>        -0.1004
     33 C26         4.8503    3.2957   -5.9123 C.ar      1 <0>        -0.0843
     34 C27         4.3565    4.4860   -6.4124 C.ar      1 <0>        -0.1191
     35 C28         3.9919    5.5008   -5.5474 C.ar      1 <0>        -0.1112
     36 C29         4.1208    5.3251   -4.1823 C.ar      1 <0>        -0.1184
     37 C30         4.6106    4.1331   -3.6821 C.ar      1 <0>        -0.1049
     38 O4          6.0486    2.0393   -2.6930 O.3       1 <0>        -0.5236
     39 H2          1.6419    0.5368    0.3171 H         1 <0>         0.0777
     40 H3          0.0105    0.2423   -0.3308 H         1 <0>         0.0545
     41 H4          0.3314    0.0220    1.4061 H         1 <0>         0.0648
     42 H5          1.7314   -1.8955    2.1844 H         1 <0>         0.0640
     43 H6          2.4077   -3.0413    1.0021 H         1 <0>         0.0533
     44 H7          3.0419   -1.3807    1.0955 H         1 <0>         0.0783
     45 H8         -0.8797   -2.0886   -0.4619 H         1 <0>         0.0632
     46 H9          0.1177   -3.4546    0.0926 H         1 <0>         0.0628
     47 H10        -0.5587   -2.3089    1.2750 H         1 <0>         0.0759
     48 H11         1.2405   -2.2613   -1.8437 H         1 <0>         0.4006
     49 H12         2.2069   -3.4307   -4.2676 H         1 <0>         0.1492
     50 H13         3.7401   -5.6522   -4.1686 H         1 <0>         0.1494
     51 H14         5.9014   -5.0339   -2.8223 H         1 <0>         0.2002
     52 H15         4.9758    0.6985   -0.6461 H         1 <0>         0.1511
     53 H16         7.0358    0.3461    0.6530 H         1 <0>         0.1265
     54 H17         8.8823   -0.9749   -0.2967 H         1 <0>         0.1273
     55 H18         8.6757   -1.9465   -2.5482 H         1 <0>         0.1285
     56 H19         5.2496    0.3998   -6.2826 H         1 <0>         0.1197
     57 H20         7.0320   -0.4357   -7.7619 H         1 <0>         0.1206
     58 H21         9.3923    0.0071   -7.2175 H         1 <0>         0.1210
     59 H22         9.9701    1.2861   -5.1942 H         1 <0>         0.1227
     60 H23         8.1873    2.1288   -3.7194 H         1 <0>         0.1296
     61 H24         5.1351    2.5028   -6.5881 H         1 <0>         0.1247
     62 H25         4.2558    4.6233   -7.4789 H         1 <0>         0.1245
     63 H26         3.6068    6.4311   -5.9381 H         1 <0>         0.1238
     64 H27         3.8363    6.1180   -3.5065 H         1 <0>         0.1250
     65 H28         4.7078    3.9944   -2.6155 H         1 <0>         0.1198
     66 H29         5.4004    2.3694   -2.0558 H         1 <0>         0.3803
@<TRIPOS>BOND
     1    1    2 1
     2    1   39 1
     3    1   40 1
     4    1   41 1
     5    2    3 1
     6    2    4 1
     7    2    5 1
     8    3   42 1
     9    3   43 1
    10    3   44 1
    11    4   45 1
    12    4   46 1
    13    4   47 1
    14    5    6 am
    15    5   48 1
    16    6    7 2
    17    6    8 1
    18    8    9 1
    19    8   10 1
    20    8   15 1
    21   10   14 1
    22   10   11 2
    23   11   12 1
    24   11   49 1
    25   12   13 2
    26   12   50 1
    27   13   14 1
    28   13   51 1
    29   15   16 1
    30   15   23 am
    31   16   21 ar
    32   16   17 ar
    33   17   18 ar
    34   17   52 1
    35   18   19 ar
    36   18   53 1
    37   19   20 ar
    38   19   54 1
    39   20   21 ar
    40   20   55 1
    41   21   22 1
    42   23   24 2
    43   23   25 1
    44   25   26 1
    45   25   32 1
    46   25   38 1
    47   26   31 ar
    48   26   27 ar
    49   27   28 ar
    50   27   56 1
    51   28   29 ar
    52   28   57 1
    53   29   30 ar
    54   29   58 1
    55   30   31 ar
    56   30   59 1
    57   31   60 1
    58   32   37 ar
    59   32   33 ar
    60   33   34 ar
    61   33   61 1
    62   34   35 ar
    63   34   62 1
    64   35   36 ar
    65   35   63 1
    66   36   37 ar
    67   36   64 1
    68   37   65 1
    69   38   66 1
@<TRIPOS>MOLECULE
ZINC44940175
   77    82     0     0     0
SMALL
USER_CHARGES

@<TRIPOS>ATOM
      1 C1         -0.0167    1.3781    0.0096 C.ar      1 <0>        -0.1135
      2 C2          1.1709    2.0855    0.0021 C.ar      1 <0>        -0.1226
      3 C3          2.3773    1.4107   -0.0130 C.ar      1 <0>        -0.0984
      4 C4          2.3960    0.0285   -0.0201 C.ar      1 <0>        -0.0907
      5 C5          1.2084   -0.6789   -0.0117 C.ar      1 <0>        -0.0981
      6 C6          0.0021   -0.0041    0.0020 C.ar      1 <0>        -0.1230
      7 C7          3.7112   -0.7071   -0.0376 C.3       1 <0>         0.1023
      8 O1          4.1410   -0.9464    1.3041 O.3       1 <0>        -0.3674
      9 C8          5.3853   -1.6423    1.4004 C.3       1 <0>         0.0843
     10 H1          5.5029   -2.2976    0.5373 H         1 <0>         0.0647
     11 C9          6.5336   -0.6318    1.4337 C.3       1 <0>        -0.1382
     12 C10         7.8659   -1.3769    1.5368 C.3       1 <0>        -0.1191
     13 C11         7.8849   -2.2128    2.8182 C.3       1 <0>        -0.1198
     14 C12         6.7366   -3.2234    2.7849 C.3       1 <0>        -0.1262
     15 C13         5.4043   -2.4782    2.6817 C.3       1 <0>         0.1569
     16 H2          5.2867   -1.8230    3.5448 H         1 <0>         0.0935
     17 N1          4.3048   -3.4459    2.6499 N.am      1 <0>        -0.7221
     18 C14         3.7980   -3.9282    3.8018 C.2       1 <0>         0.5321
     19 O2          4.2522   -3.5612    4.8648 O.2       1 <0>        -0.5280
     20 C15         2.6670   -4.9236    3.7690 C.3       1 <0>        -0.0860
     21 H3          2.9829   -5.8148    3.2267 H         1 <0>         0.1026
     22 C16         1.4593   -4.3003    3.0663 C.3       1 <0>        -0.1099
     23 C17         0.3110   -5.3108    3.0330 C.3       1 <0>        -0.1198
     24 C18        -0.0730   -5.6937    4.4637 C.3       1 <0>        -0.1199
     25 C19         1.1347   -6.3170    5.1664 C.3       1 <0>        -0.1240
     26 C20         2.2830   -5.3065    5.1997 C.3       1 <0>        -0.0872
     27 H4          1.9671   -4.4153    5.7420 H         1 <0>         0.1022
     28 C21         3.4725   -5.9204    5.8919 C.2       1 <0>         0.5392
     29 O3          4.5239   -6.0399    5.2993 O.2       1 <0>        -0.5219
     30 N2          3.3680   -6.3367    7.1695 N.am      1 <0>        -0.6095
     31 C22         4.5185   -6.9328    7.8651 C.3       1 <0>         0.1142
     32 C23         4.9213   -6.0225    9.0315 C.3       1 <0>        -0.0617
     33 C24         3.6800   -5.6012    9.7757 C.2       1 <0>        -0.1469
     34 C25         3.5781   -5.0528   11.1131 C.ar      1 <0>        -0.1034
     35 C26         4.5327   -4.7546   12.0903 C.ar      1 <0>        -0.0647
     36 C27         4.0685   -4.2323   13.2722 C.ar      1 <0>        -0.1501
     37 C28         2.7205   -4.0066   13.4980 C.ar      1 <0>        -0.0978
     38 C29         1.7545   -4.2925   12.5489 C.ar      1 <0>        -0.1326
     39 C30         2.1966   -4.8233   11.3387 C.ar      1 <0>         0.1030
     40 N3          1.5311   -5.2095   10.2110 N.pl3     1 <0>        -0.5810
     41 H5          0.5705   -5.1614   10.0857 H         1 <0>         0.4157
     42 C31         2.4245   -5.6747    9.2832 C.2       1 <0>         0.0425
     43 C32         2.1002   -6.2006    7.9070 C.3       1 <0>         0.1751
     44 H6         -0.9591    1.9053    0.0259 H         1 <0>         0.1228
     45 H7          1.1563    3.1654    0.0076 H         1 <0>         0.1237
     46 H8          3.3051    1.9634   -0.0196 H         1 <0>         0.1220
     47 H9          1.2231   -1.7588   -0.0176 H         1 <0>         0.1211
     48 H10        -0.9258   -0.5567    0.0082 H         1 <0>         0.1233
     49 H11         3.5884   -1.6586   -0.5549 H         1 <0>         0.0567
     50 H12         4.4573   -0.1052   -0.5563 H         1 <0>         0.0577
     51 H13         6.5201   -0.0363    0.5209 H         1 <0>         0.0683
     52 H14         6.4161    0.0235    2.2968 H         1 <0>         0.0748
     53 H15         7.9835   -2.0322    0.6738 H         1 <0>         0.0636
     54 H16         8.6840   -0.6570    1.5605 H         1 <0>         0.0690
     55 H17         8.8341   -2.7437    2.8916 H         1 <0>         0.0684
     56 H18         7.7673   -1.5576    3.6812 H         1 <0>         0.0664
     57 H19         6.8542   -3.8787    1.9218 H         1 <0>         0.0635
     58 H20         6.7501   -3.8189    3.6977 H         1 <0>         0.0783
     59 H21         3.9415   -3.7394    1.7997 H         1 <0>         0.3951
     60 H22         1.1434   -3.4091    3.6086 H         1 <0>         0.0705
     61 H23         1.7329   -4.0275    2.0471 H         1 <0>         0.0711
     62 H24        -0.5494   -4.8668    2.5324 H         1 <0>         0.0695
     63 H25         0.6269   -6.2020    2.4907 H         1 <0>         0.0667
     64 H26        -0.3889   -4.8025    5.0060 H         1 <0>         0.0657
     65 H27        -0.8911   -6.4137    4.4400 H         1 <0>         0.0704
     66 H28         0.8611   -6.5898    6.1857 H         1 <0>         0.0770
     67 H29         1.4506   -7.2082    4.6241 H         1 <0>         0.0730
     68 H30         4.2444   -7.9161    8.2474 H         1 <0>         0.0723
     69 H31         5.3542   -7.0291    7.1719 H         1 <0>         0.0992
     70 H32         5.5843   -6.5649    9.7055 H         1 <0>         0.0832
     71 H33         5.4326   -5.1403    8.6461 H         1 <0>         0.0771
     72 H34         5.5857   -4.9275   11.9234 H         1 <0>         0.1289
     73 H35         4.7767   -3.9899   14.0506 H         1 <0>         0.1186
     74 H36         2.4127   -3.5938   14.4474 H         1 <0>         0.1213
     75 H37         0.7065   -4.1125   12.7375 H         1 <0>         0.1276
     76 H38         1.4440   -5.5011    7.3892 H         1 <0>         0.1008
     77 H39         1.6144   -7.1728    7.9904 H         1 <0>         0.0879
@<TRIPOS>BOND
     1    1    6 ar
     2    1    2 ar
     3    1   44 1
     4    2    3 ar
     5    2   45 1
     6    3    4 ar
     7    3   46 1
     8    4    5 ar
     9    4    7 1
    10    5    6 ar
    11    5   47 1
    12    6   48 1
    13    7    8 1
    14    7   49 1
    15    7   50 1
    16    8    9 1
    17    9   10 1
    18    9   15 1
    19    9   11 1
    20   11   12 1
    21   11   51 1
    22   11   52 1
    23   12   13 1
    24   12   53 1
    25   12   54 1
    26   13   14 1
    27   13   55 1
    28   13   56 1
    29   14   15 1
    30   14   57 1
    31   14   58 1
    32   15   16 1
    33   15   17 1
    34   17   18 am
    35   17   59 1
    36   18   19 2
    37   18   20 1
    38   20   21 1
    39   20   26 1
    40   20   22 1
    41   22   23 1
    42   22   60 1
    43   22   61 1
    44   23   24 1
    45   23   62 1
    46   23   63 1
    47   24   25 1
    48   24   64 1
    49   24   65 1
    50   25   26 1
    51   25   66 1
    52   25   67 1
    53   26   27 1
    54   26   28 1
    55   28   29 2
    56   28   30 am
    57   30   43 1
    58   30   31 1
    59   31   32 1
    60   31   68 1
    61   31   69 1
    62   32   33 1
    63   32   70 1
    64   32   71 1
    65   33   42 2
    66   33   34 1
    67   34   39 ar
    68   34   35 ar
    69   35   36 ar
    70   35   72 1
    71   36   37 ar
    72   36   73 1
    73   37   38 ar
    74   37   74 1
    75   38   39 ar
    76   38   75 1
    77   39   40 1
    78   40   41 1
    79   40   42 1
    80   42   43 1
    81   43   76 1
    82   43   77 1
@<TRIPOS>MOLECULE
ZINC00721348
   53    55     0     0     0
SMALL
USER_CHARGES
methyl 10-[2,2,2-trifluoro-1-(2-furylcarbonylamino)-1-(trifluoromethyl)ethyl]amino-9-thiabicyclo[6.3.0]undeca-10,12-diene-11-carboxylate
@<TRIPOS>ATOM
      1 C1         -5.7310    6.0661    0.9273 C.3       1 <0>         0.0294
      2 O1         -5.7148    4.6701    1.2322 O.3       1 <0>        -0.3478
      3 C2         -5.8886    3.8162    0.2024 C.2       1 <0>         0.5276
      4 O2         -6.0496    4.2466   -0.9242 O.2       1 <0>        -0.4867
      5 C3         -5.8835    2.3732    0.4401 C.2       1 <0>        -0.2280
      6 C4         -7.1282    1.6544    0.7467 C.2       1 <0>        -0.0348
      7 C5         -6.9576    0.3441    0.9809 C.2       1 <0>        -0.1730
      8 S1         -5.2240    0.0392    0.7553 S.3       1 <0>         0.1456
      9 C6         -4.7067    1.6469    0.3787 C.2       1 <0>         0.1355
     10 N1         -3.4321    2.0962    0.0931 N.pl3     1 <0>        -0.6693
     11 C7         -2.3160    1.1487    0.0414 C.3       1 <0>         0.3307
     12 C8         -1.9152    0.7546    1.4644 C.3       1 <0>         0.4426
     13 F1         -0.9161   -0.2233    1.4136 F         1 <0>        -0.1554
     14 F2         -1.4326    1.8797    2.1415 F         1 <0>        -0.1468
     15 F3         -3.0306    0.2470    2.1393 F         1 <0>        -0.1415
     16 C9         -1.1244    1.8022   -0.6615 C.3       1 <0>         0.4504
     17 F4         -1.5230    2.2683   -1.9189 F         1 <0>        -0.1382
     18 F5         -0.6600    2.8745    0.1077 F         1 <0>        -0.1551
     19 F6         -0.1007    0.8613   -0.8159 F         1 <0>        -0.1498
     20 N2         -2.7244   -0.0471   -0.6998 N.am      1 <0>        -0.7278
     21 C10        -3.3432    0.0768   -1.8907 C.2       1 <0>         0.6135
     22 O3         -3.6380    1.1801   -2.3113 O.2       1 <0>        -0.4608
     23 C11        -3.6559   -1.1174   -2.6824 C.2       1 <0>        -0.0890
     24 C12        -4.2720   -1.1337   -3.9008 C.2       1 <0>        -0.0958
     25 C13        -4.3678   -2.4798   -4.2867 C.2       1 <0>        -0.2246
     26 C14        -3.8131   -3.2170   -3.2993 C.2       1 <0>         0.0113
     27 O4         -3.3800   -2.3921   -2.3371 O.3       1 <0>        -0.1633
     28 C15        -7.9769   -0.6736    1.4115 C.3       1 <0>        -0.0528
     29 C16        -8.1541   -0.5085    2.9313 C.3       1 <0>        -0.1162
     30 C17        -8.4847    0.9616    3.2192 C.3       1 <0>        -0.1311
     31 C18        -9.7951    1.2247    2.5090 C.3       1 <0>        -0.1209
     32 C19        -9.6455    1.5462    1.0321 C.3       1 <0>        -0.1272
     33 C20        -8.4426    2.4362    0.7461 C.3       1 <0>        -0.0611
     34 H1         -5.5806    6.6396    1.8420 H         1 <0>         0.1042
     35 H2         -4.9326    6.2930    0.2208 H         1 <0>         0.0604
     36 H3         -6.6922    6.3306    0.4866 H         1 <0>         0.0620
     37 H4         -3.2761    3.0390   -0.0733 H         1 <0>         0.4303
     38 H5         -2.5495   -0.9281   -0.3335 H         1 <0>         0.4289
     39 H6         -4.6187   -0.2768   -4.4593 H         1 <0>         0.1636
     40 H7         -4.8034   -2.8558   -5.2006 H         1 <0>         0.1621
     41 H8         -3.7283   -4.2936   -3.2899 H         1 <0>         0.2160
     42 H9         -8.9239   -0.4905    0.9038 H         1 <0>         0.1074
     43 H10        -7.6202   -1.6780    1.1833 H         1 <0>         0.0760
     44 H11        -8.9697   -1.1434    3.2774 H         1 <0>         0.0716
     45 H12        -7.2312   -0.7851    3.4411 H         1 <0>         0.0627
     46 H13        -8.5983    1.1197    4.2917 H         1 <0>         0.0658
     47 H14        -7.7032    1.6090    2.8216 H         1 <0>         0.0790
     48 H15       -10.4276    0.3427    2.6098 H         1 <0>         0.0636
     49 H16       -10.2927    2.0623    2.9978 H         1 <0>         0.0555
     50 H17        -9.5338    0.6142    0.4781 H         1 <0>         0.0783
     51 H18       -10.5478    2.0521    0.6884 H         1 <0>         0.0685
     52 H19        -8.5741    2.9054   -0.2289 H         1 <0>         0.0774
     53 H20        -8.3897    3.2141    1.5078 H         1 <0>         0.0769
@<TRIPOS>BOND
     1    1    2 1
     2    1   34 1
     3    1   35 1
     4    1   36 1
     5    2    3 1
     6    3    4 2
     7    3    5 1
     8    5    9 2
     9    5    6 1
    10    6   33 1
    11    6    7 2
    12    7    8 1
    13    7   28 1
    14    8    9 1
    15    9   10 1
    16   10   11 1
    17   10   37 1
    18   11   12 1
    19   11   16 1
    20   11   20 1
    21   12   13 1
    22   12   14 1
    23   12   15 1
    24   16   17 1
    25   16   18 1
    26   16   19 1
    27   20   21 am
    28   20   38 1
    29   21   22 2
    30   21   23 1
    31   23   27 1
    32   23   24 2
    33   24   25 1
    34   24   39 1
    35   25   26 2
    36   25   40 1
    37   26   27 1
    38   26   41 1
    39   28   29 1
    40   28   42 1
    41   28   43 1
    42   29   30 1
    43   29   44 1
    44   29   45 1
    45   30   31 1
    46   30   46 1
    47   30   47 1
    48   31   32 1
    49   31   48 1
    50   31   49 1
    51   32   33 1
    52   32   50 1
    53   32   51 1
    54   33   52 1
    55   33   53 1
@<TRIPOS>MOLECULE
ZINC13096910
   68    72     0     0     0
SMALL
USER_CHARGES
2-[2-(1-adamantylamino)-2-oxo-ethyl]sulfanyl-N-[2-[(4-chlorophenyl)amino]-2-oxo-ethyl]-N-methyl-benzamide
@<TRIPOS>ATOM
      1 C1         -1.1443    1.9977   -6.8357 C.3       1 <0>         0.0610
      2 N1         -1.8853    2.4402   -5.6519 N.am      1 <0>        -0.5952
      3 C2         -3.0473    3.3198   -5.8016 C.3       1 <0>         0.0998
      4 C3         -2.5992    4.7576   -5.7477 C.2       1 <0>         0.4963
      5 O1         -1.4248    5.0216   -5.5989 O.2       1 <0>        -0.5018
      6 N2         -3.5034    5.7501   -5.8648 N.am      1 <0>        -0.6736
      7 C4         -3.1040    7.0827   -5.7099 C.ar      1 <0>         0.1508
      8 C5         -3.9606    8.0011   -5.1172 C.ar      1 <0>        -0.1316
      9 C6         -3.5622    9.3142   -4.9612 C.ar      1 <0>        -0.0906
     10 C7         -2.3147    9.7174   -5.4043 C.ar      1 <0>        -0.0494
     11 C8         -1.4613    8.8053   -6.0000 C.ar      1 <0>        -0.0914
     12 C9         -1.8528    7.4898   -6.1537 C.ar      1 <0>        -0.1084
     13 Cl1        -1.8194   11.3701   -5.2121 Cl        1 <0>        -0.0697
     14 C10        -1.4981    2.0381   -4.4252 C.2       1 <0>         0.5650
     15 O2         -2.1620    2.3347   -3.4504 O.2       1 <0>        -0.5059
     16 C11        -0.2701    1.2389   -4.2652 C.ar      1 <0>        -0.1224
     17 C12         0.1105    0.3287   -5.2548 C.ar      1 <0>        -0.0780
     18 C13         1.2594   -0.4149   -5.0995 C.ar      1 <0>        -0.1386
     19 C14         2.0430   -0.2657   -3.9654 C.ar      1 <0>        -0.0701
     20 C15         1.6844    0.6319   -2.9817 C.ar      1 <0>        -0.1477
     21 C16         0.5251    1.3875   -3.1174 C.ar      1 <0>        -0.0545
     22 S1          0.0603    2.5304   -1.8595 S.3       1 <0>         0.0473
     23 C17         1.3678    2.3665   -0.6127 C.3       1 <0>        -0.1873
     24 C18         1.0882    3.3030    0.5344 C.2       1 <0>         0.5372
     25 O3          0.1039    4.0112    0.5131 O.2       1 <0>        -0.5083
     26 N3          1.9321    3.3534    1.5841 N.am      1 <0>        -0.7218
     27 C19         1.6603    4.2638    2.6993 C.3       1 <0>         0.1857
     28 C20         1.6240    5.7041    2.1847 C.3       1 <0>        -0.1231
     29 C21         1.3402    6.6549    3.3493 C.3       1 <0>        -0.0823
     30 C22         2.4430    6.5166    4.4009 C.3       1 <0>        -0.1113
     31 C23         2.4792    5.0762    4.9155 C.3       1 <0>        -0.0802
     32 C24         2.7631    4.1255    3.7509 C.3       1 <0>        -0.1143
     33 C25         1.1290    4.7248    5.5433 C.3       1 <0>        -0.1112
     34 C26         0.0262    4.8630    4.4918 C.3       1 <0>        -0.0823
     35 C27        -0.0101    6.3034    3.9771 C.3       1 <0>        -0.1099
     36 C28         0.3100    3.9123    3.3271 C.3       1 <0>        -0.1229
     37 H1         -1.6347    1.1246   -7.2660 H         1 <0>         0.0664
     38 H2         -1.1218    2.8014   -7.5717 H         1 <0>         0.0717
     39 H3         -0.1249    1.7380   -6.5501 H         1 <0>         0.0949
     40 H4         -3.5293    3.1251   -6.7597 H         1 <0>         0.1157
     41 H5         -3.7539    3.1289   -4.9939 H         1 <0>         0.1230
     42 H6         -4.4310    5.5410   -6.0566 H         1 <0>         0.4137
     43 H7         -4.9358    7.6878   -4.7749 H         1 <0>         0.1363
     44 H8         -4.2262   10.0279   -4.4963 H         1 <0>         0.1382
     45 H9         -0.4881    9.1224   -6.3447 H         1 <0>         0.1365
     46 H10        -1.1862    6.7783   -6.6183 H         1 <0>         0.1465
     47 H11        -0.4954    0.2086   -6.1408 H         1 <0>         0.1459
     48 H12         1.5519   -1.1178   -5.8655 H         1 <0>         0.1327
     49 H13         2.9424   -0.8531   -3.8536 H         1 <0>         0.1306
     50 H14         2.3027    0.7453   -2.1034 H         1 <0>         0.1275
     51 H15         1.3936    1.3404   -0.2461 H         1 <0>         0.1154
     52 H16         2.3297    2.6169   -1.0600 H         1 <0>         0.1132
     53 H17         2.7193    2.7870    1.6012 H         1 <0>         0.3996
     54 H18         2.5860    5.9545    1.7374 H         1 <0>         0.0595
     55 H19         0.8384    5.8026    1.4355 H         1 <0>         0.0860
     56 H20         1.3144    7.6810    2.9827 H         1 <0>         0.0728
     57 H21         2.2408    7.1939    5.2306 H         1 <0>         0.0653
     58 H22         3.4049    6.7670    3.9536 H         1 <0>         0.0623
     59 H23         3.2649    4.9778    5.6647 H         1 <0>         0.0753
     60 H24         2.7889    3.0994    4.1175 H         1 <0>         0.0686
     61 H25         3.7250    4.3759    3.3036 H         1 <0>         0.0684
     62 H26         1.1548    3.6987    5.9100 H         1 <0>         0.0623
     63 H27         0.9268    5.4021    6.3731 H         1 <0>         0.0653
     64 H28        -0.9358    4.6127    4.9391 H         1 <0>         0.0728
     65 H29        -0.2123    6.9807    4.8069 H         1 <0>         0.0631
     66 H30        -0.7957    6.4019    3.2280 H         1 <0>         0.0654
     67 H31        -0.4756    4.0108    2.5780 H         1 <0>         0.0862
     68 H32         0.3359    2.8862    3.6938 H         1 <0>         0.0597
@<TRIPOS>BOND
     1    1    2 1
     2    1   37 1
     3    1   38 1
     4    1   39 1
     5    2    3 1
     6    2   14 am
     7    3    4 1
     8    3   40 1
     9    3   41 1
    10    4    5 2
    11    4    6 am
    12    6    7 1
    13    6   42 1
    14    7   12 ar
    15    7    8 ar
    16    8    9 ar
    17    8   43 1
    18    9   10 ar
    19    9   44 1
    20   10   11 ar
    21   10   13 1
    22   11   12 ar
    23   11   45 1
    24   12   46 1
    25   14   15 2
    26   14   16 1
    27   16   21 ar
    28   16   17 ar
    29   17   18 ar
    30   17   47 1
    31   18   19 ar
    32   18   48 1
    33   19   20 ar
    34   19   49 1
    35   20   21 ar
    36   20   50 1
    37   21   22 1
    38   22   23 1
    39   23   24 1
    40   23   51 1
    41   23   52 1
    42   24   25 2
    43   24   26 am
    44   26   27 1
    45   26   53 1
    46   27   32 1
    47   27   36 1
    48   27   28 1
    49   28   29 1
    50   28   54 1
    51   28   55 1
    52   29   35 1
    53   29   30 1
    54   29   56 1
    55   30   31 1
    56   30   57 1
    57   30   58 1
    58   31   32 1
    59   31   33 1
    60   31   59 1
    61   32   60 1
    62   32   61 1
    63   33   34 1
    64   33   62 1
    65   33   63 1
    66   34   35 1
    67   34   36 1
    68   34   64 1
    69   35   65 1
    70   35   66 1
    71   36   67 1
    72   36   68 1
@<TRIPOS>MOLECULE
ZINC21222826
   72    76     0     0     0
SMALL
USER_CHARGES
(6R,9R)-9-(4-dimethylaminophenyl)-6-(3-methoxy-4-propoxy-phenyl)-5,6,8,9,10,11-hexahydrobenzo[c][1,5]benzodiazepin-7-one
@<TRIPOS>ATOM
      1 C1         -1.5113    2.0240    7.8128 C.3       1 <0>        -0.1512
      2 C2         -1.6352    0.5510    7.4182 C.3       1 <0>        -0.1240
      3 C3         -0.8167    0.2916    6.1518 C.3       1 <0>         0.0575
      4 O1         -0.9324   -1.0842    5.7833 O.3       1 <0>        -0.3060
      5 C4         -0.2602   -1.4840    4.6708 C.ar      1 <0>         0.1006
      6 C5          0.4941   -0.5721    3.9500 C.ar      1 <0>        -0.1766
      7 C6          1.1765   -0.9800    2.8191 C.ar      1 <0>        -0.1015
      8 C7          1.1088   -2.2973    2.4048 C.ar      1 <0>        -0.0774
      9 C8          0.3539   -3.2110    3.1163 C.ar      1 <0>        -0.1392
     10 C9         -0.3286   -2.8097    4.2535 C.ar      1 <0>         0.0937
     11 O2         -1.0676   -3.7085    4.9575 O.3       1 <0>        -0.3081
     12 C10        -1.0918   -5.0517    4.4705 C.3       1 <0>         0.0239
     13 C11         1.8547   -2.7366    1.1712 C.3       1 <0>         0.2901
     14 H1          1.6571   -3.7797    0.8834 H         1 <0>         0.0893
     15 C12         3.3356   -2.5998    1.4360 C.2       1 <0>        -0.3028
     16 C13         4.1545   -1.6908    0.8827 C.2       1 <0>         0.2700
     17 C14         5.6257   -1.6483    1.2632 C.3       1 <0>        -0.1003
     18 C15         6.1236   -3.0581    1.5762 C.3       1 <0>        -0.0286
     19 H2          6.0373   -3.7080    0.6929 H         1 <0>         0.0866
     20 C16         5.2884   -3.5997    2.7425 C.3       1 <0>        -0.1594
     21 C17         3.8405   -3.5479    2.3572 C.2       1 <0>         0.4006
     22 O3          3.0729   -4.3489    2.8537 O.2       1 <0>        -0.4748
     23 C18         7.5783   -3.0110    1.9668 C.ar      1 <0>        -0.1398
     24 C19         7.9748   -2.2652    3.0617 C.ar      1 <0>        -0.0653
     25 C20         9.3064   -2.2244    3.4258 C.ar      1 <0>        -0.1918
     26 C21        10.2494   -2.9244    2.6839 C.ar      1 <0>         0.2132
     27 C22         9.8484   -3.6680    1.5813 C.ar      1 <0>        -0.1926
     28 C23         8.5145   -3.7090    1.2261 C.ar      1 <0>        -0.0636
     29 N1         11.5977   -2.8811    3.0462 N.pl3     1 <0>        -0.6383
     30 C24        12.5907   -3.6204    2.2629 C.3       1 <0>         0.0921
     31 C25        12.0187   -2.0964    4.2094 C.3       1 <0>         0.0920
     32 N2          3.7793   -0.7561   -0.0273 N.pl3     1 <0>        -0.6976
     33 C26         2.6546    0.0540    0.0862 C.ar      1 <0>         0.1146
     34 C27         2.7426    1.4314    0.1871 C.ar      1 <0>        -0.1177
     35 C28         1.5814    2.1847    0.2216 C.ar      1 <0>        -0.1241
     36 C29         0.3463    1.5650    0.1631 C.ar      1 <0>        -0.1098
     37 C30         0.2571    0.1860    0.0885 C.ar      1 <0>        -0.1252
     38 C31         1.4173   -0.5714    0.0575 C.ar      1 <0>         0.1741
     39 N3          1.3751   -1.9641    0.0449 N.pl3     1 <0>        -0.7821
     40 H3         -2.0998    2.2104    8.7233 H         1 <0>         0.0652
     41 H4         -1.8900    2.6556    6.9957 H         1 <0>         0.0576
     42 H5         -0.4550    2.2650    8.0031 H         1 <0>         0.0574
     43 H6         -1.2565   -0.0806    8.2353 H         1 <0>         0.0740
     44 H7         -2.6915    0.3100    7.2279 H         1 <0>         0.0740
     45 H8         -1.1954    0.9232    5.3347 H         1 <0>         0.0599
     46 H9          0.2396    0.5326    6.3421 H         1 <0>         0.0593
     47 H10         0.5486    0.4575    4.2716 H         1 <0>         0.1286
     48 H11         1.7640   -0.2683    2.2582 H         1 <0>         0.1214
     49 H12         0.2994   -4.2385    2.7882 H         1 <0>         0.1339
     50 H13        -1.7215   -5.6689    5.1282 H         1 <0>         0.0996
     51 H14        -0.0687   -5.4556    4.4578 H         1 <0>         0.0582
     52 H15        -1.5038   -5.0646    3.4506 H         1 <0>         0.0528
     53 H16         6.2089   -1.2352    0.4270 H         1 <0>         0.0858
     54 H17         5.7566   -1.0122    2.1510 H         1 <0>         0.0942
     55 H18         5.5832   -4.6383    2.9534 H         1 <0>         0.0964
     56 H19         5.4610   -2.9810    3.6355 H         1 <0>         0.0986
     57 H20         7.2418   -1.7173    3.6352 H         1 <0>         0.1188
     58 H21         9.6149   -1.6453    4.2837 H         1 <0>         0.1201
     59 H22        10.5791   -4.2132    1.0021 H         1 <0>         0.1204
     60 H23         8.2020   -4.2873    0.3691 H         1 <0>         0.1208
     61 H24        13.5893   -3.4662    2.6976 H         1 <0>         0.0742
     62 H25        12.5827   -3.2575    1.2245 H         1 <0>         0.0546
     63 H26        12.3456   -4.6926    2.2785 H         1 <0>         0.0548
     64 H27        13.1079   -2.1836    4.3357 H         1 <0>         0.0742
     65 H28        11.5136   -2.4758    5.1099 H         1 <0>         0.0548
     66 H29        11.7507   -1.0406    4.0559 H         1 <0>         0.0545
     67 H30         4.3822   -0.5977   -0.9336 H         1 <0>         0.4262
     68 H31         3.7075    1.9139    0.2385 H         1 <0>         0.1247
     69 H32         1.6403    3.2607    0.2945 H         1 <0>         0.1238
     70 H33        -0.5541    2.1613    0.1712 H         1 <0>         0.1218
     71 H34        -0.7088   -0.2961    0.0552 H         1 <0>         0.1231
     72 H35         0.9689   -2.4759   -0.8400 H         1 <0>         0.4160
@<TRIPOS>BOND
     1    1    2 1
     2    1   40 1
     3    1   41 1
     4    1   42 1
     5    2    3 1
     6    2   43 1
     7    2   44 1
     8    3    4 1
     9    3   45 1
    10    3   46 1
    11    4    5 1
    12    5   10 ar
    13    5    6 ar
    14    6    7 ar
    15    6   47 1
    16    7    8 ar
    17    7   48 1
    18    8    9 ar
    19    8   13 1
    20    9   10 ar
    21    9   49 1
    22   10   11 1
    23   11   12 1
    24   12   50 1
    25   12   51 1
    26   12   52 1
    27   13   14 1
    28   13   39 1
    29   13   15 1
    30   15   21 1
    31   15   16 2
    32   16   17 1
    33   16   32 1
    34   17   18 1
    35   17   53 1
    36   17   54 1
    37   18   19 1
    38   18   20 1
    39   18   23 1
    40   20   21 1
    41   20   55 1
    42   20   56 1
    43   21   22 2
    44   23   28 ar
    45   23   24 ar
    46   24   25 ar
    47   24   57 1
    48   25   26 ar
    49   25   58 1
    50   26   27 ar
    51   26   29 1
    52   27   28 ar
    53   27   59 1
    54   28   60 1
    55   29   30 1
    56   29   31 1
    57   30   61 1
    58   30   62 1
    59   30   63 1
    60   31   64 1
    61   31   65 1
    62   31   66 1
    63   32   33 1
    64   32   67 1
    65   33   38 ar
    66   33   34 ar
    67   34   35 ar
    68   34   68 1
    69   35   36 ar
    70   35   69 1
    71   36   37 ar
    72   36   70 1
    73   37   38 ar
    74   37   71 1
    75   38   39 1
    76   39   72 1
@<TRIPOS>MOLECULE
ZINC38682486
   64    67     0     0     0
SMALL
USER_CHARGES

@<TRIPOS>ATOM
      1 C1          1.7992   -1.0765    1.9100 C.3       1 <0>        -0.1398
      2 C2          3.1899   -1.7072    2.0058 C.3       1 <0>        -0.0272
      3 C3          4.1616   -0.7061    2.6339 C.3       1 <0>        -0.1397
      4 C4          3.1207   -2.9647    2.8746 C.3       1 <0>        -0.1468
      5 C5          3.6705   -2.0757    0.6259 C.ar      1 <0>        -0.1014
      6 C6          3.9629   -3.3934    0.3260 C.ar      1 <0>        -0.0804
      7 C7          4.4041   -3.7338   -0.9381 C.ar      1 <0>        -0.1404
      8 C8          4.5533   -2.7522   -1.9071 C.ar      1 <0>         0.1208
      9 C9          4.2588   -1.4309   -1.6038 C.ar      1 <0>        -0.2053
     10 C10         3.8129   -1.0965   -0.3397 C.ar      1 <0>        -0.0745
     11 O1          4.9876   -3.0845   -3.1512 O.3       1 <0>        -0.2956
     12 C11         5.1176   -2.0222   -4.0982 C.3       1 <0>         0.0740
     13 C12         5.6071   -2.5768   -5.4112 C.2       1 <0>         0.4622
     14 O2          5.8224   -3.7603   -5.5244 O.2       1 <0>        -0.4575
     15 O3          5.8038   -1.7557   -6.4551 O.3       1 <0>        -0.2881
     16 C13         6.3422   -2.2809   -7.5873 C.ar      1 <0>         0.1146
     17 C14         5.5549   -3.0351   -8.4462 C.ar      1 <0>        -0.1232
     18 C15         6.1033   -3.5679   -9.5960 C.ar      1 <0>        -0.0601
     19 C16         7.4369   -3.3535   -9.8968 C.ar      1 <0>        -0.1122
     20 C17         8.2276   -2.6010   -9.0426 C.ar      1 <0>         0.1315
     21 C18         7.6759   -2.0593   -7.8886 C.ar      1 <0>        -0.1200
     22 O4          9.5363   -2.3800   -9.3201 O.3       1 <0>        -0.2418
     23 C19        10.1807   -3.1759  -10.1895 C.2       1 <0>         0.4421
     24 C20         9.5171   -3.9433  -11.0863 C.2       1 <0>        -0.2770
     25 C21         8.0159   -3.9431  -11.1555 C.3       1 <0>         0.0844
     26 H1          7.6597   -4.9666  -11.2719 H         1 <0>         0.1024
     27 C22         7.5709   -3.1252  -12.3404 C.ar      1 <0>        -0.0807
     28 C23         7.9035   -1.7849  -12.4176 C.ar      1 <0>        -0.0812
     29 C24         7.4971   -1.0323  -13.5016 C.ar      1 <0>        -0.0967
     30 C25         6.7534   -1.6233  -14.5160 C.ar      1 <0>        -0.0809
     31 C26         6.4214   -2.9704  -14.4353 C.ar      1 <0>        -0.1307
     32 C27         6.8358   -3.7180  -13.3508 C.ar      1 <0>        -0.0902
     33 S1          6.2320   -0.6667  -15.9009 S.3       1 <0>        -0.1207
     34 C28         5.3154   -1.8468  -16.9293 C.3       1 <0>        -0.1438
     35 C29        10.2608   -4.7715  -11.9872 C.1       1 <0>         0.2723
     36 N1         10.8508   -5.4285  -12.7019 N.1       1 <0>        -0.4421
     37 N2         11.5527   -3.2119  -10.1685 N.pl3     1 <0>        -0.8287
     38 H2          1.8484   -0.1806    1.2910 H         1 <0>         0.0563
     39 H3          1.1069   -1.7896    1.4625 H         1 <0>         0.0568
     40 H4          1.4515   -0.8099    2.9080 H         1 <0>         0.0592
     41 H5          3.8140   -0.4396    3.6320 H         1 <0>         0.0592
     42 H6          5.1524   -1.1555    2.7022 H         1 <0>         0.0567
     43 H7          4.2109    0.1897    2.0150 H         1 <0>         0.0563
     44 H8          2.4284   -3.6778    2.4271 H         1 <0>         0.0594
     45 H9          4.1115   -3.4140    2.9429 H         1 <0>         0.0593
     46 H10         2.7731   -2.6981    3.8727 H         1 <0>         0.0596
     47 H11         3.8467   -4.1571    1.0807 H         1 <0>         0.1358
     48 H12         4.6331   -4.7631   -1.1716 H         1 <0>         0.1330
     49 H13         4.3741   -0.6650   -2.3564 H         1 <0>         0.1294
     50 H14         3.5793   -0.0686   -0.1044 H         1 <0>         0.1262
     51 H15         4.1486   -1.5448   -4.2440 H         1 <0>         0.1119
     52 H16         5.8318   -1.2882   -3.7250 H         1 <0>         0.1119
     53 H17         4.5138   -3.2056   -8.2152 H         1 <0>         0.1394
     54 H18         5.4891   -4.1546  -10.2630 H         1 <0>         0.1446
     55 H19         8.2886   -1.4689   -7.2234 H         1 <0>         0.1490
     56 H20         8.4814   -1.3264  -11.6289 H         1 <0>         0.1215
     57 H21         7.7565    0.0144  -13.5608 H         1 <0>         0.1281
     58 H22         5.8436   -3.4329  -15.2218 H         1 <0>         0.1241
     59 H23         6.5817   -4.7659  -13.2894 H         1 <0>         0.1267
     60 H24         5.9750   -2.6645  -17.2199 H         1 <0>         0.0841
     61 H25         4.4724   -2.2436  -16.3635 H         1 <0>         0.0845
     62 H26         4.9479   -1.3415  -17.8225 H         1 <0>         0.1100
     63 H27        12.0425   -2.6677   -9.5322 H         1 <0>         0.4123
     64 H28        12.0325   -3.7816  -10.7900 H         1 <0>         0.4266
@<TRIPOS>BOND
     1    1    2 1
     2    1   38 1
     3    1   39 1
     4    1   40 1
     5    2    3 1
     6    2    4 1
     7    2    5 1
     8    3   41 1
     9    3   42 1
    10    3   43 1
    11    4   44 1
    12    4   45 1
    13    4   46 1
    14    5   10 ar
    15    5    6 ar
    16    6    7 ar
    17    6   47 1
    18    7    8 ar
    19    7   48 1
    20    8    9 ar
    21    8   11 1
    22    9   10 ar
    23    9   49 1
    24   10   50 1
    25   11   12 1
    26   12   13 1
    27   12   51 1
    28   12   52 1
    29   13   14 2
    30   13   15 1
    31   15   16 1
    32   16   21 ar
    33   16   17 ar
    34   17   18 ar
    35   17   53 1
    36   18   19 ar
    37   18   54 1
    38   19   25 1
    39   19   20 ar
    40   20   21 ar
    41   20   22 1
    42   21   55 1
    43   22   23 1
    44   23   24 2
    45   23   37 1
    46   24   25 1
    47   24   35 1
    48   25   26 1
    49   25   27 1
    50   27   32 ar
    51   27   28 ar
    52   28   29 ar
    53   28   56 1
    54   29   30 ar
    55   29   57 1
    56   30   31 ar
    57   30   33 1
    58   31   32 ar
    59   31   58 1
    60   32   59 1
    61   33   34 1
    62   34   60 1
    63   34   61 1
    64   34   62 1
    65   35   36 3
    66   37   63 1
    67   37   64 1
@<TRIPOS>MOLECULE
ZINC54200676
   57    61     0     0     0
SMALL
USER_CHARGES

@<TRIPOS>ATOM
      1 C1         -0.4260    0.4513   -0.3039 C.ar      1 <0>        -0.1150
      2 C2          0.6018    1.3757   -0.3128 C.ar      1 <0>        -0.1129
      3 C3          1.9153    0.9494   -0.2502 C.ar      1 <0>        -0.1143
      4 C4          2.2009   -0.4012   -0.1783 C.ar      1 <0>        -0.0877
      5 C5          1.1731   -1.3255   -0.1685 C.ar      1 <0>        -0.1099
      6 C6         -0.1404   -0.8993   -0.2325 C.ar      1 <0>        -0.1156
      7 C7          3.6329   -0.8660   -0.1110 C.3       1 <0>        -0.0841
      8 C8          4.1109   -0.8366    1.3421 C.3       1 <0>         0.1502
      9 H1          3.9845    0.1679    1.7459 H         1 <0>         0.1149
     10 C9          5.5668   -1.2216    1.3998 C.2       1 <0>         0.4972
     11 O1          5.9125   -2.1921    2.0399 O.2       1 <0>        -0.4858
     12 N1          6.4846   -0.4875    0.7402 N.am      1 <0>        -0.6709
     13 C10         7.8439   -0.7885    0.8683 C.ar      1 <0>         0.1420
     14 C11         8.7821    0.2339    0.8784 C.ar      1 <0>        -0.1104
     15 C12        10.1298   -0.0545    1.0048 C.ar      1 <0>        -0.0795
     16 C13        10.5529   -1.3723    1.1226 C.ar      1 <0>        -0.0373
     17 C14         9.6053   -2.4095    1.1127 C.ar      1 <0>        -0.1531
     18 C15         8.2540   -2.1133    0.9913 C.ar      1 <0>        -0.0461
     19 C16        10.3353   -3.6924    1.2525 C.2       1 <0>         0.4492
     20 O2          9.8441   -4.8025    1.2833 O.2       1 <0>        -0.4147
     21 C17        11.7769   -3.3646    1.3468 C.ar      1 <0>        -0.1741
     22 C18        11.9064   -1.9675    1.2685 C.ar      1 <0>        -0.0199
     23 C19        13.1684   -1.3932    1.3325 C.ar      1 <0>        -0.1023
     24 C20        14.2894   -2.1962    1.4721 C.ar      1 <0>        -0.0851
     25 C21        14.1615   -3.5695    1.5486 C.ar      1 <0>        -0.1249
     26 C22        12.9094   -4.1584    1.4873 C.ar      1 <0>        -0.0445
     27 N2          3.3234   -1.7843    2.1345 N.pl3     1 <0>        -1.0893
     28 S1          2.9356   -1.4290    3.7047 S.o2      1 <0>         2.6912
     29 O3          2.1509   -2.5123    4.1843 O.2       1 <0>        -0.9467
     30 O4          4.1405   -1.0219    4.3385 O.2       1 <0>        -0.9397
     31 C23         1.8809   -0.0179    3.6744 C.ar      1 <0>        -0.6751
     32 C24         2.4264    1.2517    3.6348 C.ar      1 <0>        -0.0114
     33 C25         1.5996    2.3590    3.6110 C.ar      1 <0>        -0.1282
     34 C26         0.2258    2.1967    3.6268 C.ar      1 <0>         0.0221
     35 C27        -0.3196    0.9258    3.6665 C.ar      1 <0>        -0.1260
     36 C28         0.5082   -0.1809    3.6845 C.ar      1 <0>         0.0020
     37 Cl1        -0.8134    3.5870    3.5975 Cl        1 <0>        -0.0525
     38 H2         -1.4524    0.7845   -0.3482 H         1 <0>         0.1206
     39 H3          0.3786    2.4308   -0.3689 H         1 <0>         0.1207
     40 H4          2.7183    1.6715   -0.2578 H         1 <0>         0.1213
     41 H5          1.3963   -2.3807   -0.1126 H         1 <0>         0.1228
     42 H6         -0.9434   -1.6215   -0.2252 H         1 <0>         0.1232
     43 H7          3.7032   -1.8832   -0.4962 H         1 <0>         0.0942
     44 H8          4.2578   -0.2058   -0.7125 H         1 <0>         0.0952
     45 H9          6.2022    0.2497    0.1766 H         1 <0>         0.4142
     46 H10         8.4588    1.2603    0.7867 H         1 <0>         0.1397
     47 H11        10.8540    0.7466    1.0114 H         1 <0>         0.1382
     48 H12         7.5235   -2.9088    0.9883 H         1 <0>         0.1502
     49 H13        13.2769   -0.3203    1.2731 H         1 <0>         0.1327
     50 H14        15.2696   -1.7453    1.5211 H         1 <0>         0.1351
     51 H15        15.0413   -4.1865    1.6570 H         1 <0>         0.1359
     52 H16        12.8131   -5.2324    1.5480 H         1 <0>         0.1348
     53 H17         3.0291   -2.6198    1.7393 H         1 <0>         0.4265
     54 H18         3.4989    1.3784    3.6228 H         1 <0>         0.1449
     55 H19         2.0260    3.3509    3.5804 H         1 <0>         0.1442
     56 H20        -1.3920    0.7984    3.6792 H         1 <0>         0.1440
     57 H21         0.0825   -1.1732    3.7107 H         1 <0>         0.1499
@<TRIPOS>BOND
     1    1    6 ar
     2    1    2 ar
     3    1   38 1
     4    2    3 ar
     5    2   39 1
     6    3    4 ar
     7    3   40 1
     8    4    5 ar
     9    4    7 1
    10    5    6 ar
    11    5   41 1
    12    6   42 1
    13    7    8 1
    14    7   43 1
    15    7   44 1
    16    8    9 1
    17    8   10 1
    18    8   27 1
    19   10   11 2
    20   10   12 am
    21   12   13 1
    22   12   45 1
    23   13   18 ar
    24   13   14 ar
    25   14   15 ar
    26   14   46 1
    27   15   16 ar
    28   15   47 1
    29   16   22 1
    30   16   17 ar
    31   17   18 ar
    32   17   19 1
    33   18   48 1
    34   19   20 2
    35   19   21 1
    36   21   26 ar
    37   21   22 ar
    38   22   23 ar
    39   23   24 ar
    40   23   49 1
    41   24   25 ar
    42   24   50 1
    43   25   26 ar
    44   25   51 1
    45   26   52 1
    46   27   28 1
    47   27   53 1
    48   28   29 2
    49   28   30 2
    50   28   31 1
    51   31   36 ar
    52   31   32 ar
    53   32   33 ar
    54   32   54 1
    55   33   34 ar
    56   33   55 1
    57   34   35 ar
    58   34   37 1
    59   35   36 ar
    60   35   56 1
    61   36   57 1
@<TRIPOS>MOLECULE
ZINC08432346
   66    70     0     0     0
SMALL
USER_CHARGES
2-(4-fluorophenyl)-9-hydroxy-9-(isopropyl-phenyl-amino)-4-methyl-N-phenyl-7-thia-1,5-diazabicyclo[4.3.0]nona-3,5-diene-3-carboxamide
@<TRIPOS>ATOM
      1 C1          3.4554    0.7032    1.1254 C.3       1 <0>        -0.0977
      2 C2          2.0573    0.2203    0.8368 C.2       1 <0>         0.2354
      3 C3          1.1115    1.1223    0.4735 C.2       1 <0>        -0.3224
      4 C4         -0.3307    0.7364    0.2701 C.3       1 <0>         0.2710
      5 H1         -0.7359    1.2691   -0.5902 H         1 <0>         0.0981
      6 N1         -0.3905   -0.7279    0.0265 N.pl3     1 <0>        -0.5973
      7 C5          0.6207   -1.5221    0.5205 C.2       1 <0>         0.4186
      8 N2          1.7859   -1.0864    0.9466 N.2       1 <0>        -0.5084
      9 S1          0.0329   -3.1900    0.4077 S.3       1 <0>        -0.0123
     10 C6         -1.3358   -2.9128   -0.7855 C.3       1 <0>        -0.1539
     11 C7         -1.4477   -1.3755   -0.7337 C.3       1 <0>         0.5763
     12 N3         -1.4197   -0.8594   -2.1045 N.pl3     1 <0>        -0.6672
     13 C8         -2.5735   -0.3092   -2.6673 C.ar      1 <0>         0.1599
     14 C9         -3.1927   -0.9380   -3.7400 C.ar      1 <0>        -0.1313
     15 C10        -4.3362   -0.3938   -4.2911 C.ar      1 <0>        -0.1068
     16 C11        -4.8589    0.7813   -3.7828 C.ar      1 <0>        -0.1240
     17 C12        -4.2420    1.4126   -2.7183 C.ar      1 <0>        -0.1075
     18 C13        -3.1012    0.8710   -2.1592 C.ar      1 <0>        -0.1172
     19 C14        -0.1814   -0.9204   -2.8850 C.3       1 <0>         0.1614
     20 C15         0.8682   -0.0071   -2.2485 C.3       1 <0>        -0.1753
     21 C16         0.3389   -2.3591   -2.9044 C.3       1 <0>        -0.1844
     22 O1         -2.7052   -1.0304   -0.1492 O.3       1 <0>        -0.5388
     23 C17        -1.1273    1.0796    1.5025 C.ar      1 <0>        -0.1053
     24 C18        -1.0811    0.2504    2.6078 C.ar      1 <0>        -0.0586
     25 C19        -1.8067    0.5670    3.7405 C.ar      1 <0>        -0.1461
     26 C20        -2.5894    1.7090    3.7639 C.ar      1 <0>         0.1059
     27 C21        -2.6392    2.5357    2.6544 C.ar      1 <0>        -0.1448
     28 C22        -1.9080    2.2202    1.5249 C.ar      1 <0>        -0.0790
     29 F1         -3.3042    2.0161    4.8685 F         1 <0>        -0.1370
     30 C23         1.4901    2.4633    0.2797 C.2       1 <0>         0.5750
     31 O2          2.6513    2.7978    0.4387 O.2       1 <0>        -0.5228
     32 N4          0.5687    3.3781   -0.0819 N.am      1 <0>        -0.6792
     33 C24         0.9606    4.6893   -0.3694 C.ar      1 <0>         0.1480
     34 C25         0.3160    5.4047   -1.3703 C.ar      1 <0>        -0.1496
     35 C26         0.7023    6.7012   -1.6484 C.ar      1 <0>        -0.1013
     36 C27         1.7363    7.2836   -0.9385 C.ar      1 <0>        -0.1359
     37 C28         2.3836    6.5722    0.0551 C.ar      1 <0>        -0.1018
     38 C29         1.9991    5.2770    0.3415 C.ar      1 <0>        -0.1180
     39 H2          4.0830   -0.1444    1.4005 H         1 <0>         0.0665
     40 H3          3.8641    1.1847    0.2371 H         1 <0>         0.0995
     41 H4          3.4302    1.4186    1.9474 H         1 <0>         0.0908
     42 H5         -2.2568   -3.3868   -0.4460 H         1 <0>         0.1389
     43 H6         -1.0636   -3.2549   -1.7840 H         1 <0>         0.1523
     44 H7         -2.7826   -1.8534   -4.1403 H         1 <0>         0.1218
     45 H8         -4.8205   -0.8843   -5.1225 H         1 <0>         0.1236
     46 H9         -5.7511    1.2067   -4.2180 H         1 <0>         0.1222
     47 H10        -4.6526    2.3304   -2.3240 H         1 <0>         0.1223
     48 H11        -2.6201    1.3644   -1.3276 H         1 <0>         0.1157
     49 H12        -0.3785   -0.5916   -3.9053 H         1 <0>         0.0889
     50 H13         1.1782   -0.4228   -1.2898 H         1 <0>         0.0641
     51 H14         1.7324    0.0683   -2.9084 H         1 <0>         0.0619
     52 H15         0.4416    0.9840   -2.0938 H         1 <0>         0.0567
     53 H16        -0.4172   -3.0131   -3.3387 H         1 <0>         0.0666
     54 H17         1.2488   -2.4084   -3.5024 H         1 <0>         0.0732
     55 H18         0.5558   -2.6808   -1.8857 H         1 <0>         0.0632
     56 H19        -3.4613   -1.4835   -0.5468 H         1 <0>         0.3973
     57 H20        -0.4746   -0.6430    2.5874 H         1 <0>         0.1209
     58 H21        -1.7668   -0.0783    4.6056 H         1 <0>         0.1367
     59 H22        -3.2491    3.4269    2.6716 H         1 <0>         0.1384
     60 H23        -1.9467    2.8649    0.6593 H         1 <0>         0.1215
     61 H24        -0.3662    3.1270   -0.1426 H         1 <0>         0.3995
     62 H25        -0.4889    4.9490   -1.9279 H         1 <0>         0.1203
     63 H26         0.1991    7.2593   -2.4240 H         1 <0>         0.1246
     64 H27         2.0392    8.2961   -1.1608 H         1 <0>         0.1223
     65 H28         3.1910    7.0298    0.6074 H         1 <0>         0.1248
     66 H29         2.5055    4.7217    1.1171 H         1 <0>         0.1397
@<TRIPOS>BOND
     1    1    2 1
     2    1   39 1
     3    1   40 1
     4    1   41 1
     5    2    8 1
     6    2    3 2
     7    3    4 1
     8    3   30 1
     9    4    5 1
    10    4    6 1
    11    4   23 1
    12    6   11 1
    13    6    7 1
    14    7    8 2
    15    7    9 1
    16    9   10 1
    17   10   11 1
    18   10   42 1
    19   10   43 1
    20   11   12 1
    21   11   22 1
    22   12   13 1
    23   12   19 1
    24   13   18 ar
    25   13   14 ar
    26   14   15 ar
    27   14   44 1
    28   15   16 ar
    29   15   45 1
    30   16   17 ar
    31   16   46 1
    32   17   18 ar
    33   17   47 1
    34   18   48 1
    35   19   20 1
    36   19   21 1
    37   19   49 1
    38   20   50 1
    39   20   51 1
    40   20   52 1
    41   21   53 1
    42   21   54 1
    43   21   55 1
    44   22   56 1
    45   23   28 ar
    46   23   24 ar
    47   24   25 ar
    48   24   57 1
    49   25   26 ar
    50   25   58 1
    51   26   27 ar
    52   26   29 1
    53   27   28 ar
    54   27   59 1
    55   28   60 1
    56   30   31 2
    57   30   32 am
    58   32   33 1
    59   32   61 1
    60   33   38 ar
    61   33   34 ar
    62   34   35 ar
    63   34   62 1
    64   35   36 ar
    65   35   63 1
    66   36   37 ar
    67   36   64 1
    68   37   38 ar
    69   37   65 1
    70   38   66 1
@<TRIPOS>MOLECULE
ZINC09445781
   60    64     0     0     0
SMALL
USER_CHARGES
2-(p-tolylsulfonylamino)-N-(4-tetralin-6-ylthiazol-2-yl)benzamide
@<TRIPOS>ATOM
      1 C1        -12.5019   -7.9834    0.7448 C.3       1 <0>        -0.1270
      2 C2        -12.9895   -6.5744    0.5254 C.ar      1 <0>        -0.0230
      3 C3        -12.9945   -5.6736    1.5739 C.ar      1 <0>        -0.1422
      4 C4        -13.4417   -4.3812    1.3726 C.ar      1 <0>        -0.0083
      5 C5        -13.8832   -3.9893    0.1227 C.ar      1 <0>        -0.6841
      6 C6        -13.8827   -4.8915   -0.9247 C.ar      1 <0>        -0.0128
      7 C7        -13.4314   -6.1827   -0.7245 C.ar      1 <0>        -0.1421
      8 S1        -14.4532   -2.3420   -0.1339 S.o2      1 <0>         2.6871
      9 O1        -14.8695   -1.8541    1.1342 O.2       1 <0>        -0.9406
     10 O2        -15.3227   -2.3833   -1.2571 O.2       1 <0>        -0.9471
     11 N1        -13.1427   -1.4347   -0.5830 N.pl3     1 <0>        -1.0426
     12 C8        -12.4380   -1.7559   -1.7358 C.ar      1 <0>         0.2343
     13 C9        -13.1082   -2.2441   -2.8509 C.ar      1 <0>        -0.1881
     14 C10       -12.4052   -2.5674   -3.9931 C.ar      1 <0>        -0.0464
     15 C11       -11.0295   -2.4042   -4.0406 C.ar      1 <0>        -0.1408
     16 C12       -10.3483   -1.9166   -2.9472 C.ar      1 <0>        -0.0564
     17 C13       -11.0457   -1.5840   -1.7827 C.ar      1 <0>        -0.1689
     18 C14       -10.3231   -1.0617   -0.6091 C.2       1 <0>         0.5719
     19 O3        -10.9338   -0.7735    0.4023 O.2       1 <0>        -0.4991
     20 N2         -8.9855   -0.9036   -0.6568 N.am      1 <0>        -0.6035
     21 C15        -8.3047   -0.4116    0.4488 C.2       1 <0>         0.3130
     22 N3         -7.0131   -0.1862    0.6022 N.2       1 <0>        -0.5286
     23 C16        -6.5285    0.2907    1.7391 C.2       1 <0>         0.1206
     24 C17        -7.3815    0.5499    2.7755 C.2       1 <0>        -0.2384
     25 S2         -8.9445    0.0838    2.0426 S.3       1 <0>         0.1233
     26 C18        -5.0733    0.5355    1.8882 C.ar      1 <0>        -0.0284
     27 C19        -4.5511    0.9376    3.1168 C.ar      1 <0>        -0.1041
     28 C20        -3.1986    1.1634    3.2405 C.ar      1 <0>        -0.1206
     29 C21        -2.3478    0.9951    2.1537 C.ar      1 <0>        -0.0691
     30 C22        -2.8580    0.5930    0.9384 C.ar      1 <0>        -0.0795
     31 C23        -4.2194    0.3652    0.8038 C.ar      1 <0>        -0.0852
     32 C24        -1.9907    0.3833   -0.2755 C.3       1 <0>        -0.0804
     33 C25        -0.6409    1.0751   -0.0979 C.3       1 <0>        -0.1206
     34 C26        -0.0499    0.6437    1.2495 C.3       1 <0>        -0.1210
     35 C27        -0.8814    1.2743    2.3647 C.3       1 <0>        -0.0827
     36 H1        -13.3384   -8.6149    1.0439 H         1 <0>         0.0817
     37 H2        -12.0698   -8.3664   -0.1797 H         1 <0>         0.0740
     38 H3        -11.7447   -7.9879    1.5288 H         1 <0>         0.0737
     39 H4        -12.6492   -5.9797    2.5504 H         1 <0>         0.1346
     40 H5        -13.4459   -3.6775    2.1919 H         1 <0>         0.1416
     41 H6        -14.2317   -4.5866   -1.9002 H         1 <0>         0.1408
     42 H7        -13.4272   -6.8864   -1.5438 H         1 <0>         0.1347
     43 H8        -12.8672   -0.6790   -0.0409 H         1 <0>         0.4403
     44 H9        -14.1798   -2.3749   -2.8218 H         1 <0>         0.1727
     45 H10       -12.9301   -2.9504   -4.8557 H         1 <0>         0.1414
     46 H11       -10.4889   -2.6611   -4.9395 H         1 <0>         0.1382
     47 H12        -9.2763   -1.7918   -2.9897 H         1 <0>         0.1327
     48 H13        -8.4984   -1.1335   -1.4635 H         1 <0>         0.4265
     49 H14        -7.1700    0.9319    3.7633 H         1 <0>         0.1995
     50 H15        -5.2038    1.0709    3.9668 H         1 <0>         0.1247
     51 H16        -2.7939    1.4744    4.1923 H         1 <0>         0.1246
     52 H17        -4.6193    0.0533   -0.1498 H         1 <0>         0.1298
     53 H18        -2.4928    0.7945   -1.1512 H         1 <0>         0.0741
     54 H19        -1.8305   -0.6848   -0.4225 H         1 <0>         0.0756
     55 H20        -0.7782    2.1564   -0.1092 H         1 <0>         0.0657
     56 H21         0.0314    0.7821   -0.9043 H         1 <0>         0.0682
     57 H22        -0.0847   -0.4423    1.3349 H         1 <0>         0.0656
     58 H23         0.9827    0.9849    1.3237 H         1 <0>         0.0683
     59 H24        -0.5700    0.8596    3.3235 H         1 <0>         0.0751
     60 H25        -0.7177    2.3519    2.3696 H         1 <0>         0.0770
@<TRIPOS>BOND
     1    1    2 1
     2    1   36 1
     3    1   37 1
     4    1   38 1
     5    2    7 ar
     6    2    3 ar
     7    3    4 ar
     8    3   39 1
     9    4    5 ar
    10    4   40 1
    11    5    6 ar
    12    5    8 1
    13    6    7 ar
    14    6   41 1
    15    7   42 1
    16    8    9 2
    17    8   10 2
    18    8   11 1
    19   11   12 1
    20   11   43 1
    21   12   17 ar
    22   12   13 ar
    23   13   14 ar
    24   13   44 1
    25   14   15 ar
    26   14   45 1
    27   15   16 ar
    28   15   46 1
    29   16   17 ar
    30   16   47 1
    31   17   18 1
    32   18   19 2
    33   18   20 am
    34   20   21 1
    35   20   48 1
    36   21   25 1
    37   21   22 2
    38   22   23 1
    39   23   24 2
    40   23   26 1
    41   24   25 1
    42   24   49 1
    43   26   31 ar
    44   26   27 ar
    45   27   28 ar
    46   27   50 1
    47   28   29 ar
    48   28   51 1
    49   29   35 1
    50   29   30 ar
    51   30   31 ar
    52   30   32 1
    53   31   52 1
    54   32   33 1
    55   32   53 1
    56   32   54 1
    57   33   34 1
    58   33   55 1
    59   33   56 1
    60   34   35 1
    61   34   57 1
    62   34   58 1
    63   35   59 1
    64   35   60 1
@<TRIPOS>MOLECULE
ZINC16425994
   65    69     0     0     0
SMALL
USER_CHARGES
(3aR,4R,9bR)-4-(2,3-dimethoxyphenyl)-N-(2,6-dimethylphenyl)-3a,4,5,9b-tetrahydro-3H-cyclopenta[c]quinoline-8-sulfonamide
@<TRIPOS>ATOM
      1 C1         -0.4037   -0.8107    2.6176 C.3       1 <0>        -0.1174
      2 C2         -0.8970    0.6060    2.4741 C.ar      1 <0>        -0.0675
      3 C3         -2.2504    0.8592    2.3661 C.ar      1 <0>        -0.1257
      4 C4         -2.7042    2.1593    2.2398 C.ar      1 <0>        -0.1009
      5 C5         -1.8047    3.2092    2.2105 C.ar      1 <0>        -0.1231
      6 C6         -0.4497    2.9627    2.3123 C.ar      1 <0>        -0.0565
      7 C7          0.0093    1.6583    2.4447 C.ar      1 <0>         0.1179
      8 N1          1.3791    1.4054    2.5483 N.pl3     1 <0>        -1.0601
      9 S1          2.1761    1.7291    3.9634 S.o2      1 <0>         2.6878
     10 O1          3.5442    1.4175    3.7393 O.2       1 <0>        -0.9586
     11 O2          1.7472    3.0164    4.3857 O.2       1 <0>        -0.9460
     12 C8          1.5889    0.5830    5.1660 C.ar      1 <0>        -0.7245
     13 C9          0.5640    0.9429    6.0221 C.ar      1 <0>         0.0327
     14 C10         0.0932    0.0433    6.9562 C.ar      1 <0>        -0.2132
     15 C11         0.6517   -1.2256    7.0521 C.ar      1 <0>         0.2767
     16 C12         1.7019   -1.5757    6.1961 C.ar      1 <0>        -0.1551
     17 C13         2.1564   -0.6744    5.2579 C.ar      1 <0>         0.0318
     18 C14         2.2966   -2.9196    6.3602 C.3       1 <0>        -0.0262
     19 H1          2.9973   -2.8800    7.1942 H         1 <0>         0.0841
     20 C15         2.9804   -3.6186    5.2420 C.2       1 <0>        -0.1568
     21 C16         2.8143   -4.9268    5.3952 C.2       1 <0>        -0.1587
     22 C17         1.9610   -5.2043    6.6343 C.3       1 <0>        -0.0837
     23 C18         1.1542   -3.9042    6.7512 C.3       1 <0>        -0.0952
     24 H2          0.3208   -3.8859    6.0490 H         1 <0>         0.0943
     25 C19         0.7158   -3.4842    8.1427 C.3       1 <0>         0.2098
     26 H3          1.5738   -3.4526    8.8142 H         1 <0>         0.0888
     27 N2          0.1381   -2.1314    7.9881 N.pl3     1 <0>        -0.7357
     28 C20        -0.3254   -4.4375    8.6701 C.ar      1 <0>        -0.0757
     29 C21        -1.6679   -4.1795    8.4619 C.ar      1 <0>        -0.1378
     30 C22        -2.6252   -5.0543    8.9402 C.ar      1 <0>        -0.0778
     31 C23        -2.2451   -6.1859    9.6381 C.ar      1 <0>        -0.1954
     32 C24        -0.9021   -6.4476    9.8547 C.ar      1 <0>         0.1166
     33 C25         0.0621   -5.5694    9.3685 C.ar      1 <0>         0.0775
     34 O3          1.3818   -5.8217    9.5789 O.3       1 <0>        -0.3191
     35 C26         1.9629   -5.2860   10.7695 C.3       1 <0>         0.0317
     36 O4         -0.5266   -7.5603   10.5405 O.3       1 <0>        -0.3048
     37 C27        -1.5703   -8.4162   11.0098 C.3       1 <0>         0.0238
     38 C28         0.5299    4.1074    2.2794 C.3       1 <0>        -0.1325
     39 H4         -0.3467   -1.0703    3.6747 H         1 <0>         0.0748
     40 H5          0.5854   -0.8983    2.1681 H         1 <0>         0.0675
     41 H6         -1.0930   -1.4883    2.1137 H         1 <0>         0.0680
     42 H7         -2.9553    0.0411    2.3841 H         1 <0>         0.1250
     43 H8         -3.7633    2.3549    2.1596 H         1 <0>         0.1254
     44 H9         -2.1622    4.2231    2.1076 H         1 <0>         0.1277
     45 H10         1.8635    1.0401    1.7915 H         1 <0>         0.4227
     46 H11         0.1284    1.9290    5.9564 H         1 <0>         0.1385
     47 H12        -0.7104    0.3282    7.6191 H         1 <0>         0.1291
     48 H13         2.9595   -0.9517    4.5911 H         1 <0>         0.1349
     49 H14         3.5220   -3.1420    4.4383 H         1 <0>         0.1323
     50 H15         3.2214   -5.6837    4.7411 H         1 <0>         0.1305
     51 H16         2.5870   -5.3560    7.5137 H         1 <0>         0.0917
     52 H17         1.3037   -6.0588    6.4733 H         1 <0>         0.0728
     53 H18        -0.6107   -1.8670    8.5452 H         1 <0>         0.4040
     54 H19        -1.9689   -3.2944    7.9211 H         1 <0>         0.1301
     55 H20        -3.6725   -4.8516    8.7716 H         1 <0>         0.1315
     56 H21        -2.9952   -6.8659   10.0140 H         1 <0>         0.1351
     57 H22         3.0169   -5.5601   10.8144 H         1 <0>         0.0970
     58 H23         1.8699   -4.2000   10.7624 H         1 <0>         0.0431
     59 H24         1.4452   -5.6893   11.6398 H         1 <0>         0.0489
     60 H25        -2.2194   -7.8603   11.6863 H         1 <0>         0.0564
     61 H26        -2.1528   -8.7772   10.1622 H         1 <0>         0.0578
     62 H27        -1.1348   -9.2639   11.5387 H         1 <0>         0.1037
     63 H28         0.7313    4.3836    1.2444 H         1 <0>         0.0675
     64 H29         0.1078    4.9621    2.8080 H         1 <0>         0.0726
     65 H30         1.4591    3.8044    2.7620 H         1 <0>         0.0861
@<TRIPOS>BOND
     1    1    2 1
     2    1   39 1
     3    1   40 1
     4    1   41 1
     5    2    7 ar
     6    2    3 ar
     7    3    4 ar
     8    3   42 1
     9    4    5 ar
    10    4   43 1
    11    5    6 ar
    12    5   44 1
    13    6    7 ar
    14    6   38 1
    15    7    8 1
    16    8    9 1
    17    8   45 1
    18    9   10 2
    19    9   11 2
    20    9   12 1
    21   12   17 ar
    22   12   13 ar
    23   13   14 ar
    24   13   46 1
    25   14   15 ar
    26   14   47 1
    27   15   27 1
    28   15   16 ar
    29   16   17 ar
    30   16   18 1
    31   17   48 1
    32   18   19 1
    33   18   23 1
    34   18   20 1
    35   20   21 2
    36   20   49 1
    37   21   22 1
    38   21   50 1
    39   22   23 1
    40   22   51 1
    41   22   52 1
    42   23   24 1
    43   23   25 1
    44   25   26 1
    45   25   27 1
    46   25   28 1
    47   27   53 1
    48   28   33 ar
    49   28   29 ar
    50   29   30 ar
    51   29   54 1
    52   30   31 ar
    53   30   55 1
    54   31   32 ar
    55   31   56 1
    56   32   33 ar
    57   32   36 1
    58   33   34 1
    59   34   35 1
    60   35   57 1
    61   35   58 1
    62   35   59 1
    63   36   37 1
    64   37   60 1
    65   37   61 1
    66   37   62 1
    67   38   63 1
    68   38   64 1
    69   38   65 1
@<TRIPOS>MOLECULE
ZINC21731668
   48    52     0     0     0
SMALL
USER_CHARGES

@<TRIPOS>ATOM
      1 C1         -0.0167    1.3782    0.0096 C.ar      1 <0>        -0.0653
      2 C2          1.1703    2.0860    0.0021 C.ar      1 <0>        -0.1561
      3 C3          2.3786    1.4101   -0.0131 C.ar      1 <0>         0.1141
      4 C4          2.3962    0.0256   -0.0207 C.ar      1 <0>        -0.1561
      5 C5          1.2079   -0.6800   -0.0132 C.ar      1 <0>        -0.0653
      6 C6          0.0021   -0.0041    0.0020 C.ar      1 <0>        -0.1296
      7 C7         -1.2930   -0.7747    0.0103 C.3       1 <0>         0.1760
      8 N1         -1.7258   -1.0170   -1.3682 N.pl3     1 <0>        -0.6666
      9 C8         -2.9026   -1.7144   -1.6147 C.2       1 <0>         0.3526
     10 N2         -3.7636   -2.2293   -0.7589 N.2       1 <0>        -0.3720
     11 N3         -4.8786   -2.8886   -1.2223 N.2       1 <0>        -0.2760
     12 C9         -5.0812   -3.0025   -2.5208 C.2       1 <0>         0.0153
     13 S1         -3.6569   -2.1459   -3.1753 S.3       1 <0>         0.0049
     14 S2         -6.4058   -3.7851   -3.3799 S.3       1 <0>         0.1488
     15 C10        -7.4705   -4.4232   -2.0570 C.3       1 <0>        -0.0954
     16 C11        -8.6581   -5.1256   -2.6630 C.2       1 <0>         0.4288
     17 N4         -9.5935   -5.6781   -1.8485 N.am      1 <0>        -0.6276
     18 H1         -9.4846   -5.6132   -0.8869 H         1 <0>         0.4253
     19 C12       -10.6690   -6.3137   -2.3492 C.2       1 <0>         0.5571
     20 O1        -11.5002   -6.8041   -1.6045 O.2       1 <0>        -0.5033
     21 C13       -10.8222   -6.4045   -3.7696 C.2       1 <0>        -0.2400
     22 C14       -11.8858   -7.0320   -4.5445 C.2       1 <0>        -0.0162
     23 C15       -11.8177   -6.9911   -5.8970 C.2       1 <0>        -0.1772
     24 S3        -10.3062   -6.0987   -6.2072 S.3       1 <0>         0.1743
     25 C16        -9.8059   -5.8042   -4.5307 C.2       1 <0>         0.1075
     26 N5         -8.7727   -5.1879   -3.9625 N.2       1 <0>        -0.4796
     27 C17       -13.0203   -7.7025   -3.8654 C.ar      1 <0>        -0.0567
     28 C18       -12.7797   -8.6300   -2.8527 C.ar      1 <0>        -0.0305
     29 C19       -13.8387   -9.2511   -2.2232 C.ar      1 <0>        -0.1560
     30 C20       -15.1397   -8.9549   -2.5964 C.ar      1 <0>         0.1063
     31 C21       -15.3837   -8.0343   -3.6026 C.ar      1 <0>        -0.1597
     32 C22       -14.3313   -7.4034   -4.2335 C.ar      1 <0>        -0.0724
     33 F1        -16.1735   -9.5659   -1.9775 F         1 <0>        -0.1393
     34 F2          3.5396    2.1009   -0.0209 F         1 <0>        -0.1349
     35 H2         -0.9592    1.9052    0.0260 H         1 <0>         0.1373
     36 H3          1.1554    3.1659    0.0077 H         1 <0>         0.1404
     37 H4          3.3381   -0.5027   -0.0329 H         1 <0>         0.1404
     38 H5          1.2213   -1.7599   -0.0195 H         1 <0>         0.1373
     39 H6         -1.1453   -1.7280    0.5176 H         1 <0>         0.0851
     40 H7         -2.0553   -0.1984    0.5345 H         1 <0>         0.0851
     41 H8         -1.1912   -0.6907   -2.1089 H         1 <0>         0.4225
     42 H9         -6.9065   -5.1261   -1.4439 H         1 <0>         0.1401
     43 H10        -7.8152   -3.5956   -1.4371 H         1 <0>         0.1398
     44 H11       -12.5126   -7.4009   -6.6150 H         1 <0>         0.2020
     45 H12       -11.7659   -8.8621   -2.5616 H         1 <0>         0.1278
     46 H13       -13.6533   -9.9697   -1.4386 H         1 <0>         0.1356
     47 H14       -16.3995   -7.8070   -3.8906 H         1 <0>         0.1374
     48 H15       -14.5226   -6.6826   -5.0147 H         1 <0>         0.1338
@<TRIPOS>BOND
     1    1    6 ar
     2    1    2 ar
     3    1   35 1
     4    2    3 ar
     5    2   36 1
     6    3    4 ar
     7    3   34 1
     8    4    5 ar
     9    4   37 1
    10    5    6 ar
    11    5   38 1
    12    6    7 1
    13    7    8 1
    14    7   39 1
    15    7   40 1
    16    8    9 1
    17    8   41 1
    18    9   13 1
    19    9   10 2
    20   10   11 1
    21   11   12 2
    22   12   13 1
    23   12   14 1
    24   14   15 1
    25   15   16 1
    26   15   42 1
    27   15   43 1
    28   16   26 2
    29   16   17 1
    30   17   18 1
    31   17   19 am
    32   19   20 2
    33   19   21 1
    34   21   25 2
    35   21   22 1
    36   22   23 2
    37   22   27 1
    38   23   24 1
    39   23   44 1
    40   24   25 1
    41   25   26 1
    42   27   32 ar
    43   27   28 ar
    44   28   29 ar
    45   28   45 1
    46   29   30 ar
    47   29   46 1
    48   30   31 ar
    49   30   33 1
    50   31   32 ar
    51   31   47 1
    52   32   48 1
@<TRIPOS>MOLECULE
ZINC43218742
   60    64     0     0     0
SMALL
USER_CHARGES

@<TRIPOS>ATOM
      1 C1         -0.0688    1.1592    1.2195 C.3       1 <0>        -0.1483
      2 C2         -0.0846   -0.3660    1.0998 C.3       1 <0>        -0.0866
      3 C3         -1.5042   -0.8417    0.9277 C.ar      1 <0>        -0.0851
      4 C4         -2.2693   -1.1462    2.0385 C.ar      1 <0>        -0.0952
      5 C5         -3.5707   -1.5823    1.8840 C.ar      1 <0>        -0.1359
      6 C6         -4.1106   -1.7145    0.6118 C.ar      1 <0>         0.1152
      7 C7         -3.3401   -1.4076   -0.5015 C.ar      1 <0>        -0.1324
      8 C8         -2.0409   -0.9673   -0.3404 C.ar      1 <0>        -0.0933
      9 N1         -5.4311   -2.1574    0.4517 N.am      1 <0>        -0.5345
     10 C9         -6.2584   -2.4753    1.5001 C.2       1 <0>         0.5875
     11 O1         -6.0926   -2.2304    2.6758 O.2       1 <0>        -0.4302
     12 C10        -7.3705   -3.1664    0.8902 C.3       1 <0>        -0.2060
     13 H1         -6.9227   -4.1204    0.6121 H         1 <0>         0.1374
     14 C11        -8.7588   -3.5491    1.1840 C.3       1 <0>         0.1351
     15 H2         -8.7838   -4.4387    1.8134 H         1 <0>         0.1645
     16 N2         -9.3553   -3.8413   -0.1611 N.4       1 <0>        -0.5051
     17 C12        -8.3261   -3.4971   -1.1954 C.3       1 <0>         0.0546
     18 C13        -7.5096   -2.3972   -0.4838 C.3       1 <0>        -0.1096
     19 H3         -8.0078   -1.4296   -0.4248 H         1 <0>         0.1654
     20 C14        -6.0342   -2.3134   -0.7638 C.2       1 <0>         0.5514
     21 O2         -5.4922   -2.3742   -1.8464 O.2       1 <0>        -0.3971
     22 C15        -7.4772   -4.6980   -1.5243 C.ar      1 <0>        -0.1184
     23 C16        -7.5357   -5.8253   -0.7263 C.ar      1 <0>        -0.1462
     24 C17        -6.7569   -6.9268   -1.0280 C.ar      1 <0>        -0.1127
     25 C18        -5.9201   -6.9013   -2.1280 C.ar      1 <0>        -0.1007
     26 C19        -5.8623   -5.7744   -2.9265 C.ar      1 <0>        -0.1086
     27 C20        -6.6442   -4.6745   -2.6273 C.ar      1 <0>        -0.0580
     28 C21        -8.9798   -2.9471   -2.4369 C.2       1 <0>         0.5096
     29 O3        -10.1944   -2.8626   -2.4999 O.co2     1 <0>        -0.6548
     30 O4         -8.2940   -2.5867   -3.3783 O.co2     1 <0>        -0.5997
     31 C22        -9.4887   -2.4122    1.8515 C.ar      1 <0>        -0.1367
     32 C23        -9.9915   -1.3724    1.0914 C.ar      1 <0>        -0.0920
     33 C24       -10.6610   -0.3297    1.7036 C.ar      1 <0>        -0.0980
     34 C25       -10.8284   -0.3266    3.0760 C.ar      1 <0>        -0.0476
     35 C26       -10.3266   -1.3664    3.8357 C.ar      1 <0>        -0.1720
     36 C27        -9.6606   -2.4117    3.2229 C.ar      1 <0>        -0.0288
     37 C28       -10.5086   -1.3628    5.3317 C.3       1 <0>         0.5088
     38 F1        -11.2099   -0.2140    5.7134 F         1 <0>        -0.1724
     39 F2        -11.2293   -2.4985    5.7165 F         1 <0>        -0.1731
     40 F3         -9.2557   -1.3726    5.9540 F         1 <0>        -0.1702
     41 H4          0.9580    1.5032    1.3440 H         1 <0>         0.0601
     42 H5         -0.4924    1.5990    0.3166 H         1 <0>         0.0566
     43 H6         -0.6606    1.4620    2.0833 H         1 <0>         0.0560
     44 H7          0.5073   -0.6688    0.2360 H         1 <0>         0.0744
     45 H8          0.3390   -0.8058    2.0027 H         1 <0>         0.0738
     46 H9         -1.8488   -1.0432    3.0280 H         1 <0>         0.1311
     47 H10        -4.1676   -1.8207    2.7519 H         1 <0>         0.1483
     48 H11        -3.7573   -1.5097   -1.4924 H         1 <0>         0.1500
     49 H12        -1.4422   -0.7248   -1.2060 H         1 <0>         0.1322
     50 H13        -9.5917   -4.8201   -0.2256 H         1 <0>         0.4303
     51 H14        -8.1895   -5.8452    0.1331 H         1 <0>         0.1104
     52 H15        -6.8021   -7.8073   -0.4041 H         1 <0>         0.1313
     53 H16        -5.3112   -7.7617   -2.3633 H         1 <0>         0.1305
     54 H17        -5.2083   -5.7544   -3.7857 H         1 <0>         0.1342
     55 H18        -6.6019   -3.7954   -3.2533 H         1 <0>         0.1703
     56 H19        -9.8607   -1.3749    0.0194 H         1 <0>         0.1408
     57 H20       -11.0530    0.4828    1.1099 H         1 <0>         0.1514
     58 H21       -11.3509    0.4885    3.5544 H         1 <0>         0.1507
     59 H22        -9.2718   -3.2261    3.8162 H         1 <0>         0.1465
     60 H23       -10.1811   -3.2782   -0.2990 H         1 <0>         0.4405
@<TRIPOS>BOND
     1    1    2 1
     2    1   41 1
     3    1   42 1
     4    1   43 1
     5    2    3 1
     6    2   44 1
     7    2   45 1
     8    3    8 ar
     9    3    4 ar
    10    4    5 ar
    11    4   46 1
    12    5    6 ar
    13    5   47 1
    14    6    7 ar
    15    6    9 1
    16    7    8 ar
    17    7   48 1
    18    8   49 1
    19    9   20 am
    20    9   10 am
    21   10   11 2
    22   10   12 1
    23   12   13 1
    24   12   18 1
    25   12   14 1
    26   14   15 1
    27   14   16 1
    28   14   31 1
    29   16   17 1
    30   16   50 1
    31   16   60 1
    32   17   18 1
    33   17   22 1
    34   17   28 1
    35   18   19 1
    36   18   20 1
    37   20   21 2
    38   22   27 ar
    39   22   23 ar
    40   23   24 ar
    41   23   51 1
    42   24   25 ar
    43   24   52 1
    44   25   26 ar
    45   25   53 1
    46   26   27 ar
    47   26   54 1
    48   27   55 1
    49   28   29 2
    50   28   30 1
    51   31   36 ar
    52   31   32 ar
    53   32   33 ar
    54   32   56 1
    55   33   34 ar
    56   33   57 1
    57   34   35 ar
    58   34   58 1
    59   35   36 ar
    60   35   37 1
    61   36   59 1
    62   37   38 1
    63   37   39 1
    64   37   40 1
@<TRIPOS>MOLECULE
ZINC08917897
   77    81     0     0     0
SMALL
USER_CHARGES
2-[(17-ethynyl-17-hydroxy-10,13-dimethyl-2,6,7,8,9,11,12,14,15,16-decahydro-1H-cyclopenta[a]phenanthren-3-ylidene)aminooxy]-N-[2-(4-hydroxyphenyl)ethyl]acetamide
@<TRIPOS>ATOM
      1 C1         -4.8736    1.4503   -0.3790 C.3       1 <0>        -0.1430
      2 C2         -3.5459    2.1159   -0.0113 C.3       1 <0>        -0.0248
      3 C3         -3.8139    3.5206    0.5316 C.3       1 <0>        -0.1052
      4 C4         -4.5069    4.3513   -0.5537 C.3       1 <0>        -0.0667
      5 C5         -3.6351    4.3677   -1.7849 C.2       1 <0>         0.1825
      6 N1         -3.6881    5.3691   -2.6050 N.2       1 <0>        -0.3504
      7 O1         -2.8690    5.3824   -3.7599 O.3       1 <0>        -0.2161
      8 C6         -3.0304    6.5460   -4.5736 C.3       1 <0>         0.0589
      9 C7         -2.1160    6.4546   -5.7679 C.2       1 <0>         0.5166
     10 O2         -1.3968    5.4882   -5.9085 O.2       1 <0>        -0.5179
     11 N2         -2.0973    7.4469   -6.6798 N.am      1 <0>        -0.7295
     12 C8         -1.2084    7.3580   -7.8409 C.3       1 <0>         0.1258
     13 C9         -1.3812    8.6038   -8.7121 C.3       1 <0>        -0.0899
     14 C10        -0.4668    8.5125   -9.9064 C.ar      1 <0>        -0.0940
     15 C11         0.8141    9.0285   -9.8361 C.ar      1 <0>        -0.0958
     16 C12         1.6562    8.9409  -10.9277 C.ar      1 <0>        -0.1431
     17 C13         1.2119    8.3447  -12.0990 C.ar      1 <0>         0.1051
     18 C14        -0.0756    7.8328  -12.1688 C.ar      1 <0>        -0.1432
     19 C15        -0.9119    7.9178  -11.0726 C.ar      1 <0>        -0.0957
     20 O3          2.0367    8.2619  -13.1759 O.3       1 <0>        -0.4998
     21 C16        -2.7280    3.2446   -2.0520 C.2       1 <0>        -0.1812
     22 C17        -2.6718    2.2029   -1.2372 C.2       1 <0>        -0.0383
     23 C18        -1.7254    1.0609   -1.5130 C.3       1 <0>        -0.0887
     24 C19        -0.7554    0.9026   -0.3506 C.3       1 <0>        -0.1311
     25 C20        -1.3245    1.4314    0.9607 C.3       1 <0>        -0.0643
     26 H1         -1.0743    2.4885    1.0504 H         1 <0>         0.0689
     27 C21        -2.8345    1.2790    1.0418 C.3       1 <0>        -0.0696
     28 H2         -3.1530    1.6147    2.0287 H         1 <0>         0.0775
     29 C22        -3.1762   -0.2048    0.8957 C.3       1 <0>        -0.1242
     30 C23        -2.6071   -0.9404    2.1078 C.3       1 <0>        -0.0948
     31 C24        -1.0882   -0.7834    2.1954 C.3       1 <0>        -0.0291
     32 C25        -0.6670    0.6937    2.0909 C.3       1 <0>        -0.0760
     33 H3          0.4164    0.7582    1.9901 H         1 <0>         0.0745
     34 C26        -1.0947    1.2839    3.4469 C.3       1 <0>        -0.1210
     35 C27        -0.7318    0.1665    4.4527 C.3       1 <0>        -0.1432
     36 C28        -0.6898   -1.1762    3.6446 C.3       1 <0>         0.2381
     37 C29         0.6680   -1.7446    3.6596 C.1       1 <0>        -0.2076
     38 C30         1.7508   -2.1979    3.6715 C.1       1 <0>        -0.1827
     39 O4         -1.6239   -2.1202    4.1720 O.3       1 <0>        -0.5386
     40 C31        -0.3728   -1.6488    1.1560 C.3       1 <0>        -0.1406
     41 H4         -4.6836    0.4477   -0.7621 H         1 <0>         0.0653
     42 H5         -5.5059    1.3871    0.5067 H         1 <0>         0.0646
     43 H6         -5.3772    2.0419   -1.1435 H         1 <0>         0.0571
     44 H7         -4.4581    3.4560    1.4085 H         1 <0>         0.0824
     45 H8         -2.8701    3.9917    0.8064 H         1 <0>         0.0715
     46 H9         -5.4716    3.9048   -0.7951 H         1 <0>         0.0968
     47 H10        -4.6532    5.3705   -0.1960 H         1 <0>         0.0898
     48 H11        -4.0644    6.6122   -4.9119 H         1 <0>         0.0868
     49 H12        -2.7809    7.4335   -3.9920 H         1 <0>         0.0867
     50 H13        -2.6725    8.2198   -6.5674 H         1 <0>         0.4030
     51 H14        -0.1743    7.2918   -7.5026 H         1 <0>         0.0719
     52 H15        -1.4579    6.4705   -8.4225 H         1 <0>         0.0720
     53 H16        -2.4153    8.6700   -9.0504 H         1 <0>         0.0821
     54 H17        -1.1317    9.4913   -8.1305 H         1 <0>         0.0820
     55 H18         1.1580    9.4964   -8.9255 H         1 <0>         0.1279
     56 H19         2.6580    9.3402  -10.8708 H         1 <0>         0.1300
     57 H20        -0.4237    7.3678  -13.0794 H         1 <0>         0.1301
     58 H21        -1.9142    7.5191  -11.1264 H         1 <0>         0.1280
     59 H22         1.9801    9.0197  -13.7738 H         1 <0>         0.3919
     60 H23        -2.0931    3.2708   -2.9252 H         1 <0>         0.1273
     61 H24        -1.1665    1.2661   -2.4260 H         1 <0>         0.0709
     62 H25        -2.2953    0.1401   -1.6374 H         1 <0>         0.0793
     63 H26        -0.5185   -0.1546   -0.2309 H         1 <0>         0.0871
     64 H27         0.1617    1.4448   -0.5807 H         1 <0>         0.0601
     65 H28        -4.2582   -0.3323    0.8616 H         1 <0>         0.0725
     66 H29        -2.7291   -0.5978   -0.0174 H         1 <0>         0.0692
     67 H30        -3.0598   -0.5376    3.0138 H         1 <0>         0.0676
     68 H31        -2.8509   -1.9998    2.0284 H         1 <0>         0.0670
     69 H32        -0.5345    2.1934    3.6641 H         1 <0>         0.0700
     70 H33        -2.1670    1.4794    3.4599 H         1 <0>         0.0781
     71 H34         0.2450    0.3641    4.8941 H         1 <0>         0.0704
     72 H35        -1.4893    0.1070    5.2342 H         1 <0>         0.0783
     73 H36         2.7194   -2.6033    3.6822 H         1 <0>         0.2177
     74 H37        -1.4285   -2.4043    5.0754 H         1 <0>         0.3781
     75 H38        -0.9089   -1.5963    0.2085 H         1 <0>         0.0691
     76 H39         0.6451   -1.2842    1.0183 H         1 <0>         0.0575
     77 H40        -0.3450   -2.6824    1.5010 H         1 <0>         0.0585
@<TRIPOS>BOND
     1    1    2 1
     2    1   41 1
     3    1   42 1
     4    1   43 1
     5    2   22 1
     6    2   27 1
     7    2    3 1
     8    3    4 1
     9    3   44 1
    10    3   45 1
    11    4    5 1
    12    4   46 1
    13    4   47 1
    14    5    6 2
    15    5   21 1
    16    6    7 1
    17    7    8 1
    18    8    9 1
    19    8   48 1
    20    8   49 1
    21    9   10 2
    22    9   11 am
    23   11   12 1
    24   11   50 1
    25   12   13 1
    26   12   51 1
    27   12   52 1
    28   13   14 1
    29   13   53 1
    30   13   54 1
    31   14   19 ar
    32   14   15 ar
    33   15   16 ar
    34   15   55 1
    35   16   17 ar
    36   16   56 1
    37   17   18 ar
    38   17   20 1
    39   18   19 ar
    40   18   57 1
    41   19   58 1
    42   20   59 1
    43   21   22 2
    44   21   60 1
    45   22   23 1
    46   23   24 1
    47   23   61 1
    48   23   62 1
    49   24   25 1
    50   24   63 1
    51   24   64 1
    52   25   26 1
    53   25   32 1
    54   25   27 1
    55   27   28 1
    56   27   29 1
    57   29   30 1
    58   29   65 1
    59   29   66 1
    60   30   31 1
    61   30   67 1
    62   30   68 1
    63   31   36 1
    64   31   32 1
    65   31   40 1
    66   32   33 1
    67   32   34 1
    68   34   35 1
    69   34   69 1
    70   34   70 1
    71   35   36 1
    72   35   71 1
    73   35   72 1
    74   36   37 1
    75   36   39 1
    76   37   38 3
    77   38   73 1
    78   39   74 1
    79   40   75 1
    80   40   76 1
    81   40   77 1
@<TRIPOS>MOLECULE
ZINC13936155
   43    45     0     0     0
SMALL
USER_CHARGES
3-[4-[(3,4-dichlorophenyl)sulfamoyl]phenyl]-1-(4-fluorophenyl)thiourea
@<TRIPOS>ATOM
      1 C1          8.7448    0.1635    6.1588 C.ar      1 <0>        -0.0380
      2 C2         10.0341   -0.3281    6.2191 C.ar      1 <0>        -0.1471
      3 C3         11.1039    0.5437    6.3330 C.ar      1 <0>         0.1132
      4 C4         10.8841    1.9101    6.3804 C.ar      1 <0>        -0.1516
      5 C5          9.5968    2.4061    6.3147 C.ar      1 <0>        -0.0870
      6 C6          8.5225    1.5335    6.2009 C.ar      1 <0>         0.0991
      7 N1          7.2168    2.0342    6.1346 N.pl3     1 <0>        -0.6193
      8 C7          6.3504    1.5388    5.2288 C.2       1 <0>         0.5467
      9 S1          6.8105    0.2234    4.2343 S.2       1 <0>        -0.5740
     10 N2          5.1217    2.0790    5.1060 N.pl3     1 <0>        -0.6328
     11 C8          4.1943    1.5140    4.2244 C.ar      1 <0>         0.1809
     12 C9          2.8866    1.2937    4.6371 C.ar      1 <0>        -0.1381
     13 C10         1.9732    0.7361    3.7641 C.ar      1 <0>        -0.0107
     14 C11         2.3593    0.3976    2.4801 C.ar      1 <0>        -0.6717
     15 C12         3.6620    0.6104    2.0679 C.ar      1 <0>        -0.0100
     16 C13         4.5790    1.1725    2.9343 C.ar      1 <0>        -0.0892
     17 S2          1.1907   -0.3130    1.3692 S.o2      1 <0>         2.6880
     18 O1          0.1232   -0.8089    2.1653 O.2       1 <0>        -0.9425
     19 O2          1.9272   -1.1420    0.4806 O.2       1 <0>        -0.9417
     20 N3          0.5678    0.9216    0.4581 N.pl3     1 <0>        -1.0625
     21 C14        -0.1966    1.9213    1.0655 C.ar      1 <0>         0.1411
     22 C15        -1.5074    1.6610    1.4450 C.ar      1 <0>        -0.0852
     23 C16        -2.2591    2.6485    2.0507 C.ar      1 <0>        -0.0885
     24 C17        -1.7121    3.9006    2.2693 C.ar      1 <0>        -0.0243
     25 C18        -0.4078    4.1653    1.8866 C.ar      1 <0>        -0.0275
     26 C19         0.3508    3.1783    1.2855 C.ar      1 <0>        -0.0934
     27 Cl1         0.2751    5.7374    2.1623 Cl        1 <0>        -0.0402
     28 Cl2        -2.6622    5.1415    3.0249 Cl        1 <0>        -0.0391
     29 F1         12.3639    0.0606    6.3975 F         1 <0>        -0.1350
     30 H1          7.9104   -0.5170    6.0748 H         1 <0>         0.1587
     31 H2         10.2078   -1.3934    6.1816 H         1 <0>         0.1436
     32 H3         11.7199    2.5884    6.4685 H         1 <0>         0.1425
     33 H4          9.4258    3.4718    6.3513 H         1 <0>         0.1353
     34 H5          6.9357    2.7376    6.7405 H         1 <0>         0.4111
     35 H6          4.8806    2.8596    5.6289 H         1 <0>         0.4129
     36 H7          2.5842    1.5585    5.6395 H         1 <0>         0.1368
     37 H8          0.9561    0.5646    4.0844 H         1 <0>         0.1472
     38 H9          3.9616    0.3409    1.0659 H         1 <0>         0.1468
     39 H10         5.5951    1.3425    2.6104 H         1 <0>         0.1575
     40 H11         0.7370    0.9530   -0.4965 H         1 <0>         0.4309
     41 H12        -1.9367    0.6854    1.2709 H         1 <0>         0.1536
     42 H13        -3.2765    2.4447    2.3502 H         1 <0>         0.1533
     43 H14         1.3680    3.3848    0.9870 H         1 <0>         0.1500
@<TRIPOS>BOND
     1    1    6 ar
     2    1    2 ar
     3    1   30 1
     4    2    3 ar
     5    2   31 1
     6    3    4 ar
     7    3   29 1
     8    4    5 ar
     9    4   32 1
    10    5    6 ar
    11    5   33 1
    12    6    7 1
    13    7    8 1
    14    7   34 1
    15    8    9 2
    16    8   10 1
    17   10   11 1
    18   10   35 1
    19   11   16 ar
    20   11   12 ar
    21   12   13 ar
    22   12   36 1
    23   13   14 ar
    24   13   37 1
    25   14   15 ar
    26   14   17 1
    27   15   16 ar
    28   15   38 1
    29   16   39 1
    30   17   18 2
    31   17   19 2
    32   17   20 1
    33   20   21 1
    34   20   40 1
    35   21   26 ar
    36   21   22 ar
    37   22   23 ar
    38   22   41 1
    39   23   24 ar
    40   23   42 1
    41   24   25 ar
    42   24   28 1
    43   25   26 ar
    44   25   27 1
    45   26   43 1
@<TRIPOS>MOLECULE
ZINC12250720
   59    62     0     0     0
SMALL
USER_CHARGES
(4R)-6-[2-[(2-chlorophenyl)amino]-2-oxo-ethyl]sulfanyl-5-cyano-2-methyl-N,4-diphenyl-1,4-dihydropyridine-3-carboxamide
@<TRIPOS>ATOM
      1 C1         -3.8893    6.9453    0.1542 C.3       1 <0>        -0.1334
      2 C2         -2.6780    7.8401    0.0992 C.2       1 <0>         0.1871
      3 C3         -1.4548    7.2924    0.0175 C.2       1 <0>        -0.2419
      4 C4         -0.2140    8.1362   -0.0440 C.3       1 <0>         0.0933
      5 H1          0.5305    7.7110    0.6452 H         1 <0>         0.0941
      6 C5         -0.5040    9.5475    0.3762 C.2       1 <0>        -0.1089
      7 C6         -1.7789   10.0159    0.4459 C.2       1 <0>         0.1621
      8 N1         -2.8417    9.1982    0.1328 N.pl3     1 <0>        -0.6524
      9 S1         -2.0729   11.6815    0.9399 S.3       1 <0>         0.0418
     10 C7         -3.8800   11.7227    0.8469 C.3       1 <0>        -0.1834
     11 C8         -4.3721   13.0922    1.2385 C.2       1 <0>         0.5389
     12 O1         -3.5790   13.9554    1.5498 O.2       1 <0>        -0.4943
     13 N2         -5.6934   13.3577    1.2427 N.am      1 <0>        -0.6775
     14 C9         -6.1452   14.6582    1.4959 C.ar      1 <0>         0.1596
     15 C10        -5.4065   15.7491    1.0575 C.ar      1 <0>        -0.1107
     16 C11        -5.8547   17.0311    1.3089 C.ar      1 <0>        -0.0924
     17 C12        -7.0381   17.2295    1.9965 C.ar      1 <0>        -0.1190
     18 C13        -7.7767   16.1460    2.4348 C.ar      1 <0>        -0.0908
     19 C14        -7.3367   14.8603    2.1816 C.ar      1 <0>        -0.0626
     20 Cl1        -8.2680   13.5000    2.7257 Cl        1 <0>        -0.0634
     21 C15         0.5829   10.4158    0.7156 C.1       1 <0>         0.2545
     22 N3          1.4452   11.1047    0.9848 N.1       1 <0>        -0.4055
     23 C16         0.3114    8.1429   -1.4565 C.ar      1 <0>        -0.0796
     24 C17        -0.4788    8.6201   -2.4855 C.ar      1 <0>        -0.1038
     25 C18         0.0048    8.6303   -3.7805 C.ar      1 <0>        -0.1197
     26 C19         1.2750    8.1549   -4.0478 C.ar      1 <0>        -0.1180
     27 C20         2.0632    7.6729   -3.0195 C.ar      1 <0>        -0.1148
     28 C21         1.5813    7.6667   -1.7239 C.ar      1 <0>        -0.1077
     29 C22        -1.3312    5.8824   -0.0055 C.2       1 <0>         0.5878
     30 O2         -1.1125    5.2735    1.0261 O.2       1 <0>        -0.5159
     31 N4         -1.4555    5.2140   -1.1692 N.am      1 <0>        -0.6760
     32 C23        -1.4579    3.8155   -1.1754 C.ar      1 <0>         0.1539
     33 C24        -1.0462    3.1239   -2.3073 C.ar      1 <0>        -0.1511
     34 C25        -1.0493    1.7428   -2.3100 C.ar      1 <0>        -0.0985
     35 C26        -1.4621    1.0486   -1.1876 C.ar      1 <0>        -0.1412
     36 C27        -1.8776    1.7342   -0.0608 C.ar      1 <0>        -0.0991
     37 C28        -1.8715    3.1152   -0.0495 C.ar      1 <0>        -0.1344
     38 H2         -3.5700    5.8933    0.1169 H         1 <0>         0.0878
     39 H3         -4.5434    7.1606   -0.7036 H         1 <0>         0.0867
     40 H4         -4.4386    7.1289    1.0894 H         1 <0>         0.0884
     41 H5         -3.8242    9.6394   -0.0906 H         1 <0>         0.4381
     42 H6         -4.1994   11.4985   -0.1816 H         1 <0>         0.1289
     43 H7         -4.2997   10.9722    1.5330 H         1 <0>         0.1319
     44 H8         -6.4168   12.5525    1.0472 H         1 <0>         0.4386
     45 H9         -4.4824   15.5953    0.5202 H         1 <0>         0.1422
     46 H10        -5.2805   17.8797    0.9677 H         1 <0>         0.1352
     47 H11        -7.3863   18.2331    2.1913 H         1 <0>         0.1361
     48 H12        -8.7004   16.3043    2.9715 H         1 <0>         0.1392
     49 H13        -1.4726    8.9880   -2.2773 H         1 <0>         0.1167
     50 H14        -0.6109    9.0072   -4.5838 H         1 <0>         0.1212
     51 H15         1.6518    8.1604   -5.0599 H         1 <0>         0.1211
     52 H16         3.0556    7.3015   -3.2283 H         1 <0>         0.1221
     53 H17         2.1970    7.2901   -0.9205 H         1 <0>         0.1201
     54 H18        -1.5551    5.7685   -2.1140 H         1 <0>         0.4347
     55 H19        -0.7236    3.6655   -3.1842 H         1 <0>         0.1237
     56 H20        -0.7292    1.2044   -3.1898 H         1 <0>         0.1243
     57 H21        -1.4643   -0.0314   -1.1925 H         1 <0>         0.1214
     58 H22        -2.2034    1.1891    0.8128 H         1 <0>         0.1238
     59 H23        -2.1919    3.6501    0.8324 H         1 <0>         0.1406
@<TRIPOS>BOND
     1    1    2 1
     2    1   38 1
     3    1   39 1
     4    1   40 1
     5    2    8 1
     6    2    3 2
     7    3    4 1
     8    3   29 1
     9    4    5 1
    10    4    6 1
    11    4   23 1
    12    6    7 2
    13    6   21 1
    14    7    8 1
    15    7    9 1
    16    8   41 1
    17    9   10 1
    18   10   11 1
    19   10   42 1
    20   10   43 1
    21   11   12 2
    22   11   13 am
    23   13   14 1
    24   13   44 1
    25   14   19 ar
    26   14   15 ar
    27   15   16 ar
    28   15   45 1
    29   16   17 ar
    30   16   46 1
    31   17   18 ar
    32   17   47 1
    33   18   19 ar
    34   18   48 1
    35   19   20 1
    36   21   22 3
    37   23   28 ar
    38   23   24 ar
    39   24   25 ar
    40   24   49 1
    41   25   26 ar
    42   25   50 1
    43   26   27 ar
    44   26   51 1
    45   27   28 ar
    46   27   52 1
    47   28   53 1
    48   29   30 2
    49   29   31 am
    50   31   32 1
    51   31   54 1
    52   32   37 ar
    53   32   33 ar
    54   33   34 ar
    55   33   55 1
    56   34   35 ar
    57   34   56 1
    58   35   36 ar
    59   35   57 1
    60   36   37 ar
    61   36   58 1
    62   37   59 1
@<TRIPOS>MOLECULE
ZINC27749804
   51    54     0     0     0
SMALL
USER_CHARGES
(4S,5R,6R)-6-[5-(4-fluorophenyl)-2-furyl]-4-hydroxy-5-(4-methylbenzoyl)-4-(trifluoromethyl)hexahydropyrimidin-2-one
@<TRIPOS>ATOM
      1 C1          1.9819    4.4881    4.4390 C.3       1 <0>        -0.1241
      2 C2          0.6893    4.0590    3.7938 C.ar      1 <0>        -0.0451
      3 C3         -0.3610    4.9548    3.6943 C.ar      1 <0>        -0.1308
      4 C4         -1.5468    4.5698    3.1054 C.ar      1 <0>        -0.0513
      5 C5         -1.6867    3.2701    2.6083 C.ar      1 <0>        -0.1623
      6 C6         -0.6229    2.3689    2.7182 C.ar      1 <0>        -0.0700
      7 C7          0.5587    2.7710    3.3043 C.ar      1 <0>        -0.1253
      8 C8         -2.9489    2.8510    1.9782 C.2       1 <0>         0.4191
      9 O1         -3.8710    3.6334    1.8891 O.2       1 <0>        -0.4159
     10 C9         -3.0955    1.4496    1.4439 C.3       1 <0>        -0.1553
     11 H1         -2.5413    0.7708    2.1088 H         1 <0>         0.1450
     12 C10        -2.5345    1.3807    0.0195 C.3       1 <0>         0.2261
     13 H2         -2.5796    0.3563   -0.3787 H         1 <0>         0.1405
     14 N1         -3.3398    2.2329   -0.8569 N.am      1 <0>        -0.7436
     15 C11        -4.6381    2.4602   -0.6082 C.2       1 <0>         0.7300
     16 O2         -5.2640    3.1679   -1.3736 O.2       1 <0>        -0.5747
     17 N2         -5.2735    1.9375    0.4512 N.am      1 <0>        -0.7415
     18 C12        -4.5794    1.0680    1.4025 C.3       1 <0>         0.3580
     19 C13        -4.7193   -0.3897    0.9590 C.3       1 <0>         0.4125
     20 F1         -4.1561   -0.5465   -0.3120 F         1 <0>        -0.1694
     21 F2         -4.0556   -1.2197    1.8688 F         1 <0>        -0.1667
     22 F3         -6.0741   -0.7356    0.9147 F         1 <0>        -0.1718
     23 O3         -5.1516    1.2288    2.7020 O.3       1 <0>        -0.5436
     24 C14        -1.1065    1.8621    0.0167 C.2       1 <0>        -0.0374
     25 C15        -0.0126    1.0758    0.0080 C.2       1 <0>        -0.1718
     26 C16         1.1092    1.9292    0.0018 C.2       1 <0>        -0.1898
     27 C17         0.6326    3.2024    0.0132 C.2       1 <0>         0.0556
     28 O4         -0.7130    3.1463    0.0258 O.3       1 <0>        -0.1494
     29 C18         1.4494    4.4342    0.0116 C.ar      1 <0>        -0.0286
     30 C19         2.8428    4.3508    0.0032 C.ar      1 <0>        -0.0657
     31 C20         3.6000    5.5035   -0.0046 C.ar      1 <0>        -0.1497
     32 C21         2.9801    6.7428    0.0080 C.ar      1 <0>         0.1097
     33 C22         1.5973    6.8315    0.0227 C.ar      1 <0>        -0.1493
     34 C23         0.8302    5.6852    0.0243 C.ar      1 <0>        -0.0659
     35 F4          3.7267    7.8688    0.0056 F         1 <0>        -0.1350
     36 H3          1.8993    5.5357    4.7642 H         1 <0>         0.0681
     37 H4          2.8031    4.3931    3.7133 H         1 <0>         0.0743
     38 H5          2.1867    3.8487    5.3103 H         1 <0>         0.0751
     39 H6         -0.2514    5.9581    4.0787 H         1 <0>         0.1273
     40 H7         -2.3656    5.2699    3.0285 H         1 <0>         0.1303
     41 H8         -0.7250    1.3621    2.3411 H         1 <0>         0.1272
     42 H9          1.3828    2.0778    3.3856 H         1 <0>         0.1271
     43 H10        -2.8819    2.7018   -1.7403 H         1 <0>         0.4510
     44 H11        -6.3377    2.1742    0.5977 H         1 <0>         0.4502
     45 H12        -6.2150    1.0008    2.8668 H         1 <0>         0.4358
     46 H13         0.0021   -0.0041    0.0020 H         1 <0>         0.1580
     47 H14         2.1467    1.6296   -0.0092 H         1 <0>         0.1550
     48 H15         3.3269    3.3854   -0.0022 H         1 <0>         0.1391
     49 H16         4.6781    5.4401   -0.0157 H         1 <0>         0.1430
     50 H17         1.1193    7.7999    0.0325 H         1 <0>         0.1405
     51 H18        -0.2474    5.7554    0.0357 H         1 <0>         0.1356
@<TRIPOS>BOND
     1    1    2 1
     2    1   36 1
     3    1   37 1
     4    1   38 1
     5    2    7 ar
     6    2    3 ar
     7    3    4 ar
     8    3   39 1
     9    4    5 ar
    10    4   40 1
    11    5    6 ar
    12    5    8 1
    13    6    7 ar
    14    6   41 1
    15    7   42 1
    16    8    9 2
    17    8   10 1
    18   10   11 1
    19   10   18 1
    20   10   12 1
    21   12   13 1
    22   12   14 1
    23   12   24 1
    24   14   15 am
    25   14   43 1
    26   15   16 2
    27   15   17 am
    28   17   18 1
    29   17   44 1
    30   18   19 1
    31   18   23 1
    32   19   20 1
    33   19   21 1
    34   19   22 1
    35   23   45 1
    36   24   28 1
    37   24   25 2
    38   25   26 1
    39   25   46 1
    40   26   27 2
    41   26   47 1
    42   27   28 1
    43   27   29 1
    44   29   34 ar
    45   29   30 ar
    46   30   31 ar
    47   30   48 1
    48   31   32 ar
    49   31   49 1
    50   32   33 ar
    51   32   35 1
    52   33   34 ar
    53   33   50 1
    54   34   51 1
@<TRIPOS>MOLECULE
ZINC41006946
   59    62     0     0     0
SMALL
USER_CHARGES

@<TRIPOS>ATOM
      1 C1         -0.8060    1.0260    1.2067 C.3       1 <0>        -0.1877
      2 C2         -0.3290   -0.3340    0.6931 C.3       1 <0>         0.1535
      3 C3          0.8510   -0.1336   -0.2637 C.3       1 <0>        -0.2018
      4 C4          2.0146    0.4325    0.5197 C.2       1 <0>         0.3645
      5 O1          2.5922    1.4233    0.1414 O.2       1 <0>        -0.4348
      6 C5          2.4358   -0.2738    1.7893 C.3       1 <0>        -0.2349
      7 H1          2.8664   -1.2443    1.5427 H         1 <0>         0.2096
      8 C6          1.1983   -0.4690    2.6716 C.3       1 <0>         0.0057
      9 H2          0.8224    0.5030    2.9907 H         1 <0>         0.1159
     10 C7          0.1156   -1.1981    1.8743 C.3       1 <0>        -0.1029
     11 H3         -0.7394   -1.3955    2.5209 H         1 <0>         0.1316
     12 C8          0.6654   -2.5039    1.3607 C.2       1 <0>         0.5232
     13 O2          1.8013   -2.8320    1.6314 O.2       1 <0>        -0.5120
     14 N1         -0.1050   -3.3071    0.6006 N.am      1 <0>        -0.6552
     15 C9          0.3636   -4.5689    0.2185 C.ar      1 <0>         0.1443
     16 C10         1.7282   -4.7979    0.1002 C.ar      1 <0>        -0.1336
     17 C11         2.1876   -6.0445   -0.2772 C.ar      1 <0>        -0.1015
     18 C12         1.2903   -7.0641   -0.5372 C.ar      1 <0>        -0.1380
     19 C13        -0.0691   -6.8392   -0.4208 C.ar      1 <0>        -0.0995
     20 C14        -0.5347   -5.5965   -0.0377 C.ar      1 <0>        -0.1488
     21 C15         1.5681   -1.2870    3.8821 C.ar      1 <0>        -0.0352
     22 C16         2.8322   -1.8396    3.9839 C.ar      1 <0>         0.0127
     23 C17         3.1711   -2.5905    5.0955 C.ar      1 <0>        -0.0999
     24 C18         2.2468   -2.7889    6.1039 C.ar      1 <0>        -0.0953
     25 C19         0.9837   -2.2369    6.0027 C.ar      1 <0>        -0.0995
     26 C20         0.6456   -1.4807    4.8945 C.ar      1 <0>        -0.0273
     27 Cl1        -0.9384   -0.7811    4.7711 Cl        1 <0>        -0.0539
     28 Cl2         3.9928   -1.5915    2.7170 Cl        1 <0>        -0.0063
     29 C21         3.4558    0.5619    2.5189 C.2       1 <0>         0.5485
     30 O3          3.2269    0.9524    3.6441 O.2       1 <0>        -0.5237
     31 N2          4.6223    0.8754    1.9210 N.am      1 <0>        -0.6803
     32 C22         5.5756    1.6387    2.6040 C.ar      1 <0>         0.1523
     33 C23         6.8971    1.2154    2.6581 C.ar      1 <0>        -0.1374
     34 C24         7.8356    1.9710    3.3331 C.ar      1 <0>        -0.1052
     35 C25         7.4606    3.1480    3.9546 C.ar      1 <0>        -0.1296
     36 C26         6.1454    3.5720    3.9029 C.ar      1 <0>        -0.1052
     37 C27         5.2033    2.8241    3.2243 C.ar      1 <0>        -0.1070
     38 O4         -1.3978   -0.9842    0.0025 O.3       1 <0>        -0.5556
     39 H4          0.0095    1.5220    1.7330 H         1 <0>         0.0716
     40 H5         -1.1228    1.6416    0.3648 H         1 <0>         0.0746
     41 H6         -1.6446    0.8832    1.8883 H         1 <0>         0.0795
     42 H7          1.1349   -1.0912   -0.7004 H         1 <0>         0.1094
     43 H8          0.5679    0.5624   -1.0533 H         1 <0>         0.1064
     44 H9         -0.9844   -3.0104    0.3185 H         1 <0>         0.4217
     45 H10         2.4295   -4.0019    0.3028 H         1 <0>         0.1498
     46 H11         3.2487   -6.2231   -0.3698 H         1 <0>         0.1236
     47 H12         1.6520   -8.0380   -0.8322 H         1 <0>         0.1216
     48 H13        -0.7674   -7.6374   -0.6249 H         1 <0>         0.1251
     49 H14        -1.5963   -5.4229    0.0580 H         1 <0>         0.1241
     50 H15         4.1579   -3.0221    5.1751 H         1 <0>         0.1401
     51 H16         2.5116   -3.3757    6.9710 H         1 <0>         0.1441
     52 H17         0.2618   -2.3926    6.7908 H         1 <0>         0.1425
     53 H18         4.8010    0.5718    1.0172 H         1 <0>         0.4047
     54 H19         7.1905    0.2960    2.1732 H         1 <0>         0.1217
     55 H20         8.8635    1.6422    3.3759 H         1 <0>         0.1253
     56 H21         8.1964    3.7371    4.4818 H         1 <0>         0.1231
     57 H22         5.8556    4.4916    4.3897 H         1 <0>         0.1245
     58 H23         4.1773    3.1584    3.1800 H         1 <0>         0.1237
     59 H24        -1.7303   -0.4918   -0.7604 H         1 <0>         0.3932
@<TRIPOS>BOND
     1    1    2 1
     2    1   39 1
     3    1   40 1
     4    1   41 1
     5    2   10 1
     6    2    3 1
     7    2   38 1
     8    3    4 1
     9    3   42 1
    10    3   43 1
    11    4    5 2
    12    4    6 1
    13    6    7 1
    14    6    8 1
    15    6   29 1
    16    8    9 1
    17    8   10 1
    18    8   21 1
    19   10   11 1
    20   10   12 1
    21   12   13 2
    22   12   14 am
    23   14   15 1
    24   14   44 1
    25   15   20 ar
    26   15   16 ar
    27   16   17 ar
    28   16   45 1
    29   17   18 ar
    30   17   46 1
    31   18   19 ar
    32   18   47 1
    33   19   20 ar
    34   19   48 1
    35   20   49 1
    36   21   26 ar
    37   21   22 ar
    38   22   23 ar
    39   22   28 1
    40   23   24 ar
    41   23   50 1
    42   24   25 ar
    43   24   51 1
    44   25   26 ar
    45   25   52 1
    46   26   27 1
    47   29   30 2
    48   29   31 am
    49   31   32 1
    50   31   53 1
    51   32   37 ar
    52   32   33 ar
    53   33   34 ar
    54   33   54 1
    55   34   35 ar
    56   34   55 1
    57   35   36 ar
    58   35   56 1
    59   36   37 ar
    60   36   57 1
    61   37   58 1
    62   38   59 1
@<TRIPOS>MOLECULE
ZINC01214281
   61    65     0     0     0
SMALL
USER_CHARGES
(3,4-dimethoxyphenyl)-[4-(trifluoromethyl)phenyl]-BLAHone
@<TRIPOS>ATOM
      1 C1         -6.7775   -4.9084    9.9881 C.3       1 <0>         0.0256
      2 O1         -6.5240   -5.0277    8.5868 O.3       1 <0>        -0.3063
      3 C2         -6.0078   -3.9381    7.9578 C.ar      1 <0>         0.1005
      4 C3         -5.7508   -2.7799    8.6738 C.ar      1 <0>        -0.1693
      5 C4         -5.2204   -1.6751    8.0340 C.ar      1 <0>        -0.1091
      6 C5         -4.9559   -1.7187    6.6777 C.ar      1 <0>        -0.0784
      7 C6         -5.2100   -2.8710    5.9575 C.ar      1 <0>        -0.1635
      8 C7         -5.7363   -3.9838    6.5938 C.ar      1 <0>         0.1029
      9 O2         -5.9865   -5.1183    5.8868 O.3       1 <0>        -0.3056
     10 C8         -5.6826   -5.0930    4.4907 C.3       1 <0>         0.0252
     11 C9         -4.3835   -0.5095    5.9841 C.3       1 <0>        -0.0310
     12 H1         -4.2225   -0.7306    4.9290 H         1 <0>         0.0880
     13 C10        -5.3427    0.6707    6.1253 C.3       1 <0>        -0.1056
     14 C11        -4.7596    1.8999    5.4473 C.2       1 <0>         0.2660
     15 C12        -3.4303    2.0873    5.4025 C.2       1 <0>        -0.3000
     16 C13        -2.7216    3.2587    4.7640 C.3       1 <0>         0.2743
     17 H2         -1.9728    3.6323    5.4624 H         1 <0>         0.1005
     18 N1         -3.5937    4.3538    4.3968 N.pl3     1 <0>        -0.7664
     19 C14        -4.5728    4.1961    3.4221 C.ar      1 <0>         0.1668
     20 C15        -4.4962    4.8582    2.2061 C.ar      1 <0>        -0.1235
     21 C16        -5.4485    4.6085    1.2337 C.ar      1 <0>        -0.1063
     22 C17        -6.4712    3.7075    1.4686 C.ar      1 <0>        -0.1189
     23 C18        -6.5646    3.0622    2.6903 C.ar      1 <0>        -0.1141
     24 C19        -5.6237    3.3261    3.6694 C.ar      1 <0>         0.1147
     25 N2         -5.6843    2.7529    4.9355 N.pl3     1 <0>        -0.6868
     26 C20        -2.0163    2.7727    3.5241 C.ar      1 <0>        -0.0545
     27 C21        -0.6375    2.8332    3.4447 C.ar      1 <0>        -0.0915
     28 C22         0.0095    2.3871    2.3076 C.ar      1 <0>        -0.0731
     29 C23        -0.7222    1.8808    1.2496 C.ar      1 <0>        -0.1833
     30 C24        -2.1013    1.8256    1.3268 C.ar      1 <0>        -0.0740
     31 C25        -2.7480    2.2669    2.4660 C.ar      1 <0>        -0.1066
     32 C26        -0.0168    1.3948    0.0098 C.3       1 <0>         0.5076
     33 F1          0.2845    0.0356    0.1472 F         1 <0>        -0.1771
     34 F2          1.1668    2.1192   -0.1676 F         1 <0>        -0.1774
     35 F3         -0.8469    1.5785   -1.1013 F         1 <0>        -0.1780
     36 C27        -2.5560    1.1384    5.9834 C.2       1 <0>         0.3999
     37 O3         -1.3586    1.3441    5.9471 O.2       1 <0>        -0.4691
     38 C28        -3.0562   -0.1125    6.6420 C.3       1 <0>        -0.1512
     39 H3         -5.8461   -4.6839   10.5080 H         1 <0>         0.0557
     40 H4         -7.4929   -4.1044   10.1607 H         1 <0>         0.0553
     41 H5         -7.1868   -5.8460   10.3644 H         1 <0>         0.1017
     42 H6         -5.9606   -2.7418    9.7325 H         1 <0>         0.1368
     43 H7         -5.0160   -0.7747    8.5941 H         1 <0>         0.1276
     44 H8         -4.9987   -2.9038    4.8989 H         1 <0>         0.1358
     45 H9         -6.2669   -4.3109    4.0058 H         1 <0>         0.0550
     46 H10        -4.6204   -4.8907    4.3536 H         1 <0>         0.0559
     47 H11        -5.9289   -6.0580    4.0477 H         1 <0>         0.1021
     48 H12        -5.5024    0.8824    7.1825 H         1 <0>         0.0949
     49 H13        -6.2961    0.4195    5.6606 H         1 <0>         0.0924
     50 H14        -3.4930    5.2131    4.8352 H         1 <0>         0.4012
     51 H15        -3.6998    5.5635    2.0196 H         1 <0>         0.1260
     52 H16        -5.3930    5.1210    0.2847 H         1 <0>         0.1257
     53 H17        -7.1991    3.5063    0.6966 H         1 <0>         0.1277
     54 H18        -7.3636    2.3598    2.8765 H         1 <0>         0.1278
     55 H19        -6.4440    2.9792    5.4946 H         1 <0>         0.4068
     56 H20        -0.0659    3.2288    4.2712 H         1 <0>         0.1346
     57 H21         1.0867    2.4343    2.2455 H         1 <0>         0.1345
     58 H22        -2.6732    1.4341    0.4985 H         1 <0>         0.1312
     59 H23        -3.8252    2.2200    2.5279 H         1 <0>         0.1281
     60 H24        -3.2032    0.0494    7.6178 H         1 <0>         0.0937
     61 H25        -2.3291   -0.9142    6.5129 H         1 <0>         0.0982
@<TRIPOS>BOND
     1    1    2 1
     2    1   39 1
     3    1   40 1
     4    1   41 1
     5    2    3 1
     6    3    8 ar
     7    3    4 ar
     8    4    5 ar
     9    4   42 1
    10    5    6 ar
    11    5   43 1
    12    6    7 ar
    13    6   11 1
    14    7    8 ar
    15    7   44 1
    16    8    9 1
    17    9   10 1
    18   10   45 1
    19   10   46 1
    20   10   47 1
    21   11   12 1
    22   11   38 1
    23   11   13 1
    24   13   14 1
    25   13   48 1
    26   13   49 1
    27   14   25 1
    28   14   15 2
    29   15   16 1
    30   15   36 1
    31   16   17 1
    32   16   18 1
    33   16   26 1
    34   18   19 1
    35   18   50 1
    36   19   24 ar
    37   19   20 ar
    38   20   21 ar
    39   20   51 1
    40   21   22 ar
    41   21   52 1
    42   22   23 ar
    43   22   53 1
    44   23   24 ar
    45   23   54 1
    46   24   25 1
    47   25   55 1
    48   26   31 ar
    49   26   27 ar
    50   27   28 ar
    51   27   56 1
    52   28   29 ar
    53   28   57 1
    54   29   30 ar
    55   29   32 1
    56   30   31 ar
    57   30   58 1
    58   31   59 1
    59   32   33 1
    60   32   34 1
    61   32   35 1
    62   36   37 2
    63   36   38 1
    64   38   60 1
    65   38   61 1
@<TRIPOS>MOLECULE
ZINC14275986
   40    42     0     0     0
SMALL
USER_CHARGES
N-[[2-chloro-4-(trifluoromethyl)phenyl]carbamothioyl]-5-(2,3-dichlorophenyl)furan-2-carboxamide
@<TRIPOS>ATOM
      1 C1         -5.9099   -3.7741    1.0117 C.ar      1 <0>        -0.0988
      2 C2         -5.4166   -2.4991    0.8264 C.ar      1 <0>        -0.0717
      3 C3         -4.3561   -2.2850   -0.0564 C.ar      1 <0>        -0.0133
      4 C4         -3.7935   -3.3676   -0.7383 C.ar      1 <0>        -0.0132
      5 C5         -4.2936   -4.6400   -0.5383 C.ar      1 <0>        -0.0331
      6 C6         -5.3492   -4.8424    0.3346 C.ar      1 <0>        -0.0826
      7 Cl1        -3.5977   -5.9873   -1.3835 Cl        1 <0>        -0.0364
      8 Cl2        -2.4708   -3.1142   -1.8337 Cl        1 <0>        -0.0315
      9 C7         -3.8274   -0.9220   -0.2639 C.2       1 <0>         0.0639
     10 C8         -4.5725    0.1854   -0.5532 C.2       1 <0>        -0.1844
     11 C9         -3.6856    1.2605   -0.6637 C.2       1 <0>        -0.0933
     12 C10        -2.4212    0.7573   -0.4432 C.2       1 <0>        -0.0851
     13 O1         -2.5335   -0.5658   -0.2000 O.3       1 <0>        -0.1503
     14 C11        -1.1750    1.5249   -0.4630 C.2       1 <0>         0.5863
     15 O2         -1.1997    2.7194   -0.6950 O.2       1 <0>        -0.3785
     16 N1         -0.0003    0.9089   -0.2243 N.am      1 <0>        -0.6344
     17 C12         1.1477    1.6146   -0.2480 C.2       1 <0>         0.5129
     18 S1          1.1130    3.2949   -0.5743 S.2       1 <0>        -0.4616
     19 N2          2.3230    0.9976   -0.0148 N.pl3     1 <0>        -0.6238
     20 C13         3.5219    1.7102   -0.1280 C.ar      1 <0>         0.1629
     21 C14         3.6491    2.9577    0.4687 C.ar      1 <0>        -0.0580
     22 C15         4.8339    3.6584    0.3556 C.ar      1 <0>        -0.0568
     23 C16         5.8936    3.1193   -0.3507 C.ar      1 <0>        -0.1617
     24 C17         5.7713    1.8776   -0.9464 C.ar      1 <0>        -0.0573
     25 C18         4.5900    1.1687   -0.8330 C.ar      1 <0>        -0.0418
     26 Cl3         4.4390   -0.3932   -1.5755 Cl        1 <0>        -0.0452
     27 C19         7.1850    3.8867   -0.4709 C.3       1 <0>         0.5116
     28 F1          8.0277    3.5513    0.5942 F         1 <0>        -0.1723
     29 F2          7.8096    3.5621   -1.6799 F         1 <0>        -0.1735
     30 F3          6.9164    5.2593   -0.4386 F         1 <0>        -0.1710
     31 H1         -6.7330   -3.9394    1.6911 H         1 <0>         0.1503
     32 H2         -5.8529   -1.6674    1.3596 H         1 <0>         0.1487
     33 H3         -5.7369   -5.8387    0.4873 H         1 <0>         0.1502
     34 H4         -5.6455    0.2242   -0.6704 H         1 <0>         0.1670
     35 H5         -3.9414    2.2868   -0.8822 H         1 <0>         0.1721
     36 H6          0.0194   -0.0431   -0.0394 H         1 <0>         0.4174
     37 H7          2.3378    0.0595    0.2316 H         1 <0>         0.4140
     38 H8          2.8224    3.3793    1.0211 H         1 <0>         0.1654
     39 H9          4.9330    4.6286    0.8196 H         1 <0>         0.1525
     40 H10         6.6007    1.4593   -1.4972 H         1 <0>         0.1542
@<TRIPOS>BOND
     1    1    6 ar
     2    1    2 ar
     3    1   31 1
     4    2    3 ar
     5    2   32 1
     6    3    4 ar
     7    3    9 1
     8    4    5 ar
     9    4    8 1
    10    5    6 ar
    11    5    7 1
    12    6   33 1
    13    9   13 1
    14    9   10 2
    15   10   11 1
    16   10   34 1
    17   11   12 2
    18   11   35 1
    19   12   13 1
    20   12   14 1
    21   14   15 2
    22   14   16 am
    23   16   17 1
    24   16   36 1
    25   17   18 2
    26   17   19 1
    27   19   20 1
    28   19   37 1
    29   20   25 ar
    30   20   21 ar
    31   21   22 ar
    32   21   38 1
    33   22   23 ar
    34   22   39 1
    35   23   24 ar
    36   23   27 1
    37   24   25 ar
    38   24   40 1
    39   25   26 1
    40   27   28 1
    41   27   29 1
    42   27   30 1
@<TRIPOS>MOLECULE
ZINC21219084
   70    74     0     0     0
SMALL
USER_CHARGES
(6R,9S)-6-(4-ethoxyphenyl)-9-(4-isobutoxyphenyl)-5,6,8,9,10,11-hexahydrobenzo[c][1,5]benzodiazepin-7-one
@<TRIPOS>ATOM
      1 C1         -3.5611   -0.9092    0.2411 C.3       1 <0>        -0.1546
      2 C2         -2.3588    0.0363    0.2780 C.3       1 <0>         0.0542
      3 O1         -1.1651   -0.7001    0.0045 O.3       1 <0>        -0.3177
      4 C3          0.0019   -0.0038   -0.0007 C.ar      1 <0>         0.1290
      5 C4          1.1989   -0.6558   -0.2590 C.ar      1 <0>        -0.1569
      6 C5          2.3838    0.0544   -0.2642 C.ar      1 <0>        -0.0506
      7 C6          2.3774    1.4139   -0.0126 C.ar      1 <0>        -0.1175
      8 C7          1.1858    2.0660    0.2456 C.ar      1 <0>        -0.0630
      9 C8         -0.0018    1.3603    0.2519 C.ar      1 <0>        -0.2118
     10 C9          3.6714    2.1863   -0.0198 C.3       1 <0>         0.2903
     11 H1          4.5487    1.5795   -0.2883 H         1 <0>         0.0904
     12 C10         3.9042    2.7416    1.3645 C.2       1 <0>        -0.3028
     13 C11         3.8306    4.0370    1.7172 C.2       1 <0>         0.2690
     14 C12         4.1018    4.4634    3.1498 C.3       1 <0>        -0.1031
     15 C13         3.6660    3.3618    4.1142 C.3       1 <0>        -0.0300
     16 H2          2.5841    3.1792    4.0357 H         1 <0>         0.0868
     17 C14         4.4645    2.0985    3.7708 C.3       1 <0>        -0.1599
     18 C15         4.2214    1.7581    2.3309 C.2       1 <0>         0.4001
     19 O2          4.2993    0.5965    1.9817 O.2       1 <0>        -0.4710
     20 C16         3.9557    3.7807    5.5326 C.ar      1 <0>        -0.1198
     21 C17         5.2542    4.0564    5.9193 C.ar      1 <0>        -0.0719
     22 C18         5.5215    4.4460    7.2174 C.ar      1 <0>        -0.2065
     23 C19         4.4873    4.5497    8.1363 C.ar      1 <0>         0.1322
     24 C20         3.1860    4.2671    7.7472 C.ar      1 <0>        -0.1499
     25 C21         2.9231    3.8833    6.4464 C.ar      1 <0>        -0.0711
     26 O3          4.7484    4.9279    9.4152 O.3       1 <0>        -0.3126
     27 C22         6.1113    5.2031    9.7449 C.3       1 <0>         0.0613
     28 C23         6.2078    5.6103   11.2166 C.3       1 <0>        -0.0952
     29 C24         7.6781    5.7839   11.6024 C.3       1 <0>        -0.1490
     30 C25         5.4652    6.9308   11.4301 C.3       1 <0>        -0.1494
     31 N1          3.5372    5.0529    0.8662 N.pl3     1 <0>        -0.6987
     32 C26         2.4973    5.0445   -0.0559 C.ar      1 <0>         0.1143
     33 C27         1.4232    5.9129    0.0303 C.ar      1 <0>        -0.1167
     34 C28         0.4466    5.8836   -0.9508 C.ar      1 <0>        -0.1251
     35 C29         0.5451    4.9962   -2.0070 C.ar      1 <0>        -0.1090
     36 C30         1.6092    4.1144   -2.0845 C.ar      1 <0>        -0.1253
     37 C31         2.5765    4.1268   -1.0926 C.ar      1 <0>         0.1740
     38 N2          3.6035    3.1843   -1.0658 N.pl3     1 <0>        -0.7824
     39 H3         -4.4800   -0.3423    0.4516 H         1 <0>         0.0789
     40 H4         -3.4330   -1.6950    1.0001 H         1 <0>         0.0670
     41 H5         -3.6347   -1.3700   -0.7550 H         1 <0>         0.0669
     42 H6         -2.4869    0.8221   -0.4810 H         1 <0>         0.0609
     43 H7         -2.2852    0.4972    1.2741 H         1 <0>         0.0604
     44 H8          1.2049   -1.7185   -0.4515 H         1 <0>         0.1274
     45 H9          3.3159   -0.4528   -0.4652 H         1 <0>         0.1271
     46 H10         1.1835    3.1279    0.4422 H         1 <0>         0.1180
     47 H11        -0.9323    1.8701    0.4536 H         1 <0>         0.1214
     48 H12         5.1778    4.6524    3.2787 H         1 <0>         0.0915
     49 H13         3.5390    5.3821    3.3717 H         1 <0>         0.0897
     50 H14         5.5357    2.2855    3.9365 H         1 <0>         0.1006
     51 H15         4.1334    1.2694    4.4134 H         1 <0>         0.0967
     52 H16         6.0596    3.9713    5.2048 H         1 <0>         0.1242
     53 H17         6.5354    4.6655    7.5179 H         1 <0>         0.1274
     54 H18         2.3791    4.3474    8.4605 H         1 <0>         0.1308
     55 H19         1.9102    3.6635    6.1429 H         1 <0>         0.1287
     56 H20         6.7191    4.3026    9.5730 H         1 <0>         0.0630
     57 H21         6.4832    6.0227    9.1125 H         1 <0>         0.0632
     58 H22         5.7540    4.8289   11.8438 H         1 <0>         0.0823
     59 H23         7.7474    6.0766   12.6605 H         1 <0>         0.0667
     60 H24         8.1319    6.5654   10.9752 H         1 <0>         0.0586
     61 H25         8.2120    4.8345   11.4489 H         1 <0>         0.0587
     62 H26         5.5346    7.2235   12.4882 H         1 <0>         0.0585
     63 H27         4.4081    6.8060   11.1527 H         1 <0>         0.0627
     64 H28         5.9191    7.7122   10.8029 H         1 <0>         0.0544
     65 H29         4.1441    5.9703    0.8749 H         1 <0>         0.4252
     66 H30         1.3474    6.6066    0.8546 H         1 <0>         0.1245
     67 H31        -0.3961    6.5565   -0.8908 H         1 <0>         0.1239
     68 H32        -0.2129    4.9915   -2.7764 H         1 <0>         0.1220
     69 H33         1.6851    3.4232   -2.9108 H         1 <0>         0.1233
     70 H34         4.3693    3.2067   -1.8551 H         1 <0>         0.4153
@<TRIPOS>BOND
     1    1    2 1
     2    1   39 1
     3    1   40 1
     4    1   41 1
     5    2    3 1
     6    2   42 1
     7    2   43 1
     8    3    4 1
     9    4    9 ar
    10    4    5 ar
    11    5    6 ar
    12    5   44 1
    13    6    7 ar
    14    6   45 1
    15    7    8 ar
    16    7   10 1
    17    8    9 ar
    18    8   46 1
    19    9   47 1
    20   10   11 1
    21   10   38 1
    22   10   12 1
    23   12   18 1
    24   12   13 2
    25   13   14 1
    26   13   31 1
    27   14   15 1
    28   14   48 1
    29   14   49 1
    30   15   16 1
    31   15   17 1
    32   15   20 1
    33   17   18 1
    34   17   50 1
    35   17   51 1
    36   18   19 2
    37   20   25 ar
    38   20   21 ar
    39   21   22 ar
    40   21   52 1
    41   22   23 ar
    42   22   53 1
    43   23   24 ar
    44   23   26 1
    45   24   25 ar
    46   24   54 1
    47   25   55 1
    48   26   27 1
    49   27   28 1
    50   27   56 1
    51   27   57 1
    52   28   29 1
    53   28   30 1
    54   28   58 1
    55   29   59 1
    56   29   60 1
    57   29   61 1
    58   30   62 1
    59   30   63 1
    60   30   64 1
    61   31   32 1
    62   31   65 1
    63   32   37 ar
    64   32   33 ar
    65   33   34 ar
    66   33   66 1
    67   34   35 ar
    68   34   67 1
    69   35   36 ar
    70   35   68 1
    71   36   37 ar
    72   36   69 1
    73   37   38 1
    74   38   70 1
@<TRIPOS>MOLECULE
ZINC36586482
   70    71     0     0     0
SMALL
USER_CHARGES

@<TRIPOS>ATOM
      1 C1          4.3757   -3.1537   -4.4762 C.3       1 <0>        -0.1533
      2 C2          5.4898   -3.6134   -3.5336 C.3       1 <0>        -0.0682
      3 C3          5.6821   -2.5749   -2.4266 C.3       1 <0>        -0.1699
      4 C4          5.1086   -4.9579   -2.9109 C.3       1 <0>        -0.1418
      5 C5          6.7928   -3.7670   -4.3207 C.3       1 <0>        -0.1161
      6 C6          7.5005   -2.4131   -4.4047 C.3       1 <0>         0.1824
      7 C7          8.1341   -2.0840   -3.0515 C.3       1 <0>        -0.2197
      8 C8          8.5902   -2.4730   -5.4770 C.3       1 <0>        -0.1591
      9 N1          6.5281   -1.3746   -4.7541 N.am      1 <0>        -0.7208
     10 C9          6.8757   -0.0744   -4.6826 C.2       1 <0>         0.5050
     11 O1          7.9935    0.2358   -4.3289 O.2       1 <0>        -0.4992
     12 C10         5.8753    0.9938   -5.0420 C.3       1 <0>         0.1673
     13 H1          4.9281    0.7869   -4.5441 H         1 <0>         0.1119
     14 C11         5.6665    1.0047   -6.5344 C.ar      1 <0>        -0.0446
     15 C12         6.7487    0.8712   -7.3856 C.ar      1 <0>        -0.0100
     16 C13         6.5563    0.8814   -8.7557 C.ar      1 <0>        -0.1014
     17 C14         5.2831    1.0253   -9.2740 C.ar      1 <0>        -0.0902
     18 C15         4.2013    1.1588   -8.4241 C.ar      1 <0>        -0.1009
     19 C16         4.3918    1.1426   -7.0537 C.ar      1 <0>        -0.0092
     20 Cl1         3.0321    1.3024   -5.9863 Cl        1 <0>        -0.0594
     21 Cl2         8.3481    0.6916   -6.7348 Cl        1 <0>        -0.0311
     22 N2          6.3791    2.2999   -4.6099 N.am      1 <0>        -0.5906
     23 C17         6.7886    3.2006   -5.5250 C.2       1 <0>         0.5791
     24 O2          6.3005    3.2008   -6.6385 O.2       1 <0>        -0.4990
     25 C18         7.8296    4.1869   -5.1753 C.ar      1 <0>        -0.1580
     26 C19         7.9107    4.6882   -3.8735 C.ar      1 <0>        -0.1069
     27 C20         8.8836    5.6078   -3.5512 C.ar      1 <0>        -0.1773
     28 C21         9.7840    6.0378   -4.5188 C.ar      1 <0>         0.1383
     29 C22         9.7067    5.5415   -5.8149 C.ar      1 <0>        -0.1678
     30 C23         8.7403    4.6173   -6.1438 C.ar      1 <0>        -0.0374
     31 O3         10.7409    6.9449   -4.1975 O.3       1 <0>        -0.4997
     32 C24         6.4378    2.6267   -3.1830 C.3       1 <0>         0.1671
     33 C25         5.7975    1.4968   -2.3742 C.3       1 <0>        -0.1609
     34 C26         7.8980    2.7943   -2.7578 C.3       1 <0>        -0.1767
     35 C27         5.6793    3.9305   -2.9269 C.3       1 <0>        -0.1812
     36 H2          4.4093   -2.0689   -4.5766 H         1 <0>         0.0550
     37 H3          4.5147   -3.6137   -5.4545 H         1 <0>         0.0613
     38 H4          3.4094   -3.4511   -4.0688 H         1 <0>         0.0648
     39 H5          4.7156   -2.3307   -1.9857 H         1 <0>         0.0482
     40 H6          6.3400   -2.9806   -1.6581 H         1 <0>         0.0650
     41 H7          6.1277   -1.6735   -2.8474 H         1 <0>         0.0875
     42 H8          4.9716   -5.6978   -3.6995 H         1 <0>         0.0555
     43 H9          5.9023   -5.2854   -2.2393 H         1 <0>         0.0559
     44 H10         4.1803   -4.8485   -2.3501 H         1 <0>         0.0561
     45 H11         7.4397   -4.4845   -3.8159 H         1 <0>         0.0808
     46 H12         6.5699   -4.1235   -5.3263 H         1 <0>         0.0694
     47 H13         9.0577   -2.6510   -2.9353 H         1 <0>         0.0536
     48 H14         8.3539   -1.0175   -3.0030 H         1 <0>         0.0953
     49 H15         7.4420   -2.3491   -2.2522 H         1 <0>         0.0935
     50 H16         8.1304   -2.6181   -6.4546 H         1 <0>         0.0529
     51 H17         9.1533   -1.5397   -5.4753 H         1 <0>         0.0703
     52 H18         9.2632   -3.3038   -5.2651 H         1 <0>         0.0606
     53 H19         5.6340   -1.6228   -5.0370 H         1 <0>         0.4009
     54 H20         7.4012    0.7771   -9.4203 H         1 <0>         0.1357
     55 H21         5.1335    1.0339  -10.3436 H         1 <0>         0.1398
     56 H22         3.2068    1.2716   -8.8297 H         1 <0>         0.1387
     57 H23         7.2109    4.3551   -3.1213 H         1 <0>         0.1989
     58 H24         8.9469    5.9958   -2.5453 H         1 <0>         0.1320
     59 H25        10.4082    5.8781   -6.5639 H         1 <0>         0.1321
     60 H26         8.6835    4.2291   -7.1500 H         1 <0>         0.1302
     61 H27        11.5671    6.5512   -3.8853 H         1 <0>         0.3945
     62 H28         6.3016    0.5573   -2.6004 H         1 <0>         0.0687
     63 H29         5.8922    1.7130   -1.3100 H         1 <0>         0.0804
     64 H30         4.7426    1.4153   -2.6359 H         1 <0>         0.0637
     65 H31         8.5214    2.9241   -3.6425 H         1 <0>         0.0917
     66 H32         7.9913    3.6702   -2.1158 H         1 <0>         0.0695
     67 H33         8.2215    1.9078   -2.2123 H         1 <0>         0.0654
     68 H34         4.6727    3.7024   -2.5764 H         1 <0>         0.0737
     69 H35         6.2041    4.5136   -2.1701 H         1 <0>         0.0851
     70 H36         5.6206    4.5045   -3.8517 H         1 <0>         0.0724
@<TRIPOS>BOND
     1    1    2 1
     2    1   36 1
     3    1   37 1
     4    1   38 1
     5    2    3 1
     6    2    4 1
     7    2    5 1
     8    3   39 1
     9    3   40 1
    10    3   41 1
    11    4   42 1
    12    4   43 1
    13    4   44 1
    14    5    6 1
    15    5   45 1
    16    5   46 1
    17    6    7 1
    18    6    8 1
    19    6    9 1
    20    7   47 1
    21    7   48 1
    22    7   49 1
    23    8   50 1
    24    8   51 1
    25    8   52 1
    26    9   10 am
    27    9   53 1
    28   10   11 2
    29   10   12 1
    30   12   13 1
    31   12   14 1
    32   12   22 1
    33   14   19 ar
    34   14   15 ar
    35   15   16 ar
    36   15   21 1
    37   16   17 ar
    38   16   54 1
    39   17   18 ar
    40   17   55 1
    41   18   19 ar
    42   18   56 1
    43   19   20 1
    44   22   23 am
    45   22   32 1
    46   23   24 2
    47   23   25 1
    48   25   30 ar
    49   25   26 ar
    50   26   27 ar
    51   26   57 1
    52   27   28 ar
    53   27   58 1
    54   28   29 ar
    55   28   31 1
    56   29   30 ar
    57   29   59 1
    58   30   60 1
    59   31   61 1
    60   32   33 1
    61   32   34 1
    62   32   35 1
    63   33   62 1
    64   33   63 1
    65   33   64 1
    66   34   65 1
    67   34   66 1
    68   34   67 1
    69   35   68 1
    70   35   69 1
    71   35   70 1
@<TRIPOS>MOLECULE
ZINC59110028
   47    49     0     0     0
SMALL
USER_CHARGES

@<TRIPOS>ATOM
      1 C1          0.1433    1.6706    0.0108 C.3       1 <0>        -0.1595
      2 C2          0.1679    0.1432    0.0973 C.3       1 <0>         0.1385
      3 H1          0.5790   -0.2688   -0.8243 H         1 <0>         0.0969
      4 C3         -1.2573   -0.3836    0.3060 C.3       1 <0>         0.0739
      5 N1         -1.1851   -1.8118    0.6450 N.pl3     1 <0>        -0.5352
      6 C4         -0.3587   -2.2278    1.7869 C.3       1 <0>         0.0760
      7 C5          1.0665   -1.7010    1.5782 C.3       1 <0>         0.0775
      8 N2          0.9977   -0.2729    1.2368 N.pl3     1 <0>        -0.5354
      9 C6          1.6797    0.6389    1.9578 C.2       1 <0>         0.5438
     10 S1          1.4641    2.3091    1.6498 S.2       1 <0>        -0.5090
     11 N3          2.5316    0.2358    2.9213 N.pl3     1 <0>        -0.6877
     12 C7          3.7459   -0.3683    2.5742 C.ar      1 <0>         0.1995
     13 C8          4.1257   -0.4509    1.2412 C.ar      1 <0>        -0.1505
     14 C9          5.3243   -1.0469    0.9013 C.ar      1 <0>        -0.0571
     15 C10         6.1473   -1.5618    1.8877 C.ar      1 <0>        -0.0581
     16 C11         5.7721   -1.4812    3.2170 C.ar      1 <0>        -0.0576
     17 C12         4.5761   -0.8812    3.5634 C.ar      1 <0>        -0.0760
     18 Cl1         4.1086   -0.7742    5.2319 Cl        1 <0>        -0.0455
     19 Cl2         7.6529   -2.3106    1.4562 Cl        1 <0>        -0.0503
     20 C13        -1.8649   -2.7236   -0.0781 C.2       1 <0>         0.5566
     21 S2         -2.7169   -2.2402   -1.4821 S.2       1 <0>        -0.5201
     22 N4         -1.8739   -4.0160    0.3041 N.pl3     1 <0>        -0.6939
     23 C14        -2.7184   -4.4338    1.3397 C.ar      1 <0>         0.2068
     24 C15        -3.6263   -3.5443    1.8986 C.ar      1 <0>        -0.1493
     25 C16        -4.4587   -3.9590    2.9197 C.ar      1 <0>        -0.0564
     26 C17        -4.3889   -5.2600    3.3864 C.ar      1 <0>        -0.0587
     27 C18        -3.4854   -6.1492    2.8319 C.ar      1 <0>        -0.0575
     28 C19        -2.6536   -5.7411    1.8062 C.ar      1 <0>        -0.0766
     29 Cl3        -1.5247   -6.8587    1.1060 Cl        1 <0>        -0.0464
     30 Cl4        -5.4365   -5.7772    4.6705 Cl        1 <0>        -0.0509
     31 H2          1.1548    2.0415   -0.1547 H         1 <0>         0.0971
     32 H3         -0.4961    1.9773   -0.8170 H         1 <0>         0.0626
     33 H4         -0.2464    2.0811    0.9423 H         1 <0>         0.1040
     34 H5         -1.7334    0.1622    1.1206 H         1 <0>         0.0996
     35 H6         -1.8331   -0.2537   -0.6103 H         1 <0>         0.1508
     36 H7         -0.7709   -1.8134    2.7070 H         1 <0>         0.0974
     37 H8         -0.3412   -3.3159    1.8486 H         1 <0>         0.1121
     38 H9          1.6423   -1.8308    2.4946 H         1 <0>         0.1118
     39 H10         1.5426   -2.2467    0.7636 H         1 <0>         0.0961
     40 H11         2.3033    0.3643    3.8553 H         1 <0>         0.4299
     41 H12         3.4840   -0.0497    0.4707 H         1 <0>         0.1374
     42 H13         5.6196   -1.1115   -0.1356 H         1 <0>         0.1462
     43 H14         6.4160   -1.8841    3.9848 H         1 <0>         0.1517
     44 H15        -1.2953   -4.6567   -0.1382 H         1 <0>         0.4292
     45 H16        -3.6813   -2.5287    1.5353 H         1 <0>         0.1381
     46 H17        -5.1647   -3.2671    3.3547 H         1 <0>         0.1464
     47 H18        -3.4327   -7.1638    3.1982 H         1 <0>         0.1517
@<TRIPOS>BOND
     1    1    2 1
     2    1   31 1
     3    1   32 1
     4    1   33 1
     5    2    3 1
     6    2    8 1
     7    2    4 1
     8    4    5 1
     9    4   34 1
    10    4   35 1
    11    5    6 1
    12    5   20 1
    13    6    7 1
    14    6   36 1
    15    6   37 1
    16    7    8 1
    17    7   38 1
    18    7   39 1
    19    8    9 1
    20    9   10 2
    21    9   11 1
    22   11   12 1
    23   11   40 1
    24   12   17 ar
    25   12   13 ar
    26   13   14 ar
    27   13   41 1
    28   14   15 ar
    29   14   42 1
    30   15   16 ar
    31   15   19 1
    32   16   17 ar
    33   16   43 1
    34   17   18 1
    35   20   21 2
    36   20   22 1
    37   22   23 1
    38   22   44 1
    39   23   28 ar
    40   23   24 ar
    41   24   25 ar
    42   24   45 1
    43   25   26 ar
    44   25   46 1
    45   26   27 ar
    46   26   30 1
    47   27   28 ar
    48   27   47 1
    49   28   29 1
@<TRIPOS>MOLECULE
ZINC01985459
   45    46     0     0     0
SMALL
USER_CHARGES
1-[[2-chloro-5-(trifluoromethyl)phenyl]carbamoyl]ethyl 2-(2,4-dichlorobenzoyl)aminoacetate
@<TRIPOS>ATOM
      1 C1          2.0779    4.1029    6.5315 C.3       1 <0>        -0.1712
      2 C2          2.1412    2.6460    6.0686 C.3       1 <0>         0.0754
      3 H1          1.6929    2.0041    6.8269 H         1 <0>         0.1223
      4 C3          1.3853    2.4971    4.7735 C.2       1 <0>         0.5206
      5 O1          1.9580    2.1059    3.7785 O.2       1 <0>        -0.4858
      6 N1          0.0727    2.7988    4.7208 N.am      1 <0>        -0.6649
      7 C4         -0.6508    2.5721    3.5441 C.ar      1 <0>         0.1548
      8 C5         -0.0407    2.7422    2.3085 C.ar      1 <0>        -0.0620
      9 C6         -0.7571    2.5174    1.1492 C.ar      1 <0>        -0.1594
     10 C7         -2.0825    2.1287    1.2175 C.ar      1 <0>        -0.0691
     11 C8         -2.6922    1.9527    2.4459 C.ar      1 <0>        -0.0896
     12 C9         -1.9811    2.1760    3.6100 C.ar      1 <0>        -0.0340
     13 Cl1        -2.7487    1.9613    5.1522 Cl        1 <0>        -0.0448
     14 C10        -0.0952    2.7019   -0.1920 C.3       1 <0>         0.5114
     15 F1          0.4866    1.4951   -0.5949 F         1 <0>        -0.1706
     16 F2          0.8940    3.6862   -0.0924 F         1 <0>        -0.1726
     17 F3         -1.0518    3.0958   -1.1339 F         1 <0>        -0.1733
     18 O2          3.5270    2.2620    5.8671 O.3       1 <0>        -0.3194
     19 C11         4.1747    1.7418    6.9214 C.2       1 <0>         0.4658
     20 O3          3.6027    1.6117    7.9777 O.2       1 <0>        -0.5008
     21 C12         5.6153    1.3202    6.7877 C.3       1 <0>         0.1307
     22 N2          6.0894    0.7886    8.0679 N.am      1 <0>        -0.7215
     23 C13         7.3574    0.3474    8.1862 C.2       1 <0>         0.5621
     24 O4          8.1077    0.3905    7.2307 O.2       1 <0>        -0.5017
     25 C14         7.8354   -0.1885    9.4770 C.ar      1 <0>        -0.1290
     26 C15         6.9760   -0.2395   10.5767 C.ar      1 <0>        -0.0596
     27 C16         7.4276   -0.7411   11.7785 C.ar      1 <0>        -0.1140
     28 C17         8.7315   -1.1946   11.8979 C.ar      1 <0>         0.0019
     29 C18         9.5893   -1.1474   10.8125 C.ar      1 <0>        -0.1127
     30 C19         9.1477   -0.6521    9.6015 C.ar      1 <0>         0.0272
     31 Cl2        10.2220   -0.5999    8.2388 Cl        1 <0>        -0.0122
     32 Cl3         9.2919   -1.8243   13.4156 Cl        1 <0>        -0.0440
     33 H2          1.0377    4.3912    6.6828 H         1 <0>         0.0849
     34 H3          2.6247    4.2106    7.4683 H         1 <0>         0.0836
     35 H4          2.5263    4.7449    5.7732 H         1 <0>         0.0806
     36 H5         -0.3705    3.1729    5.4983 H         1 <0>         0.4185
     37 H6          0.9931    3.0497    2.2539 H         1 <0>         0.1638
     38 H7         -2.6414    1.9579    0.3093 H         1 <0>         0.1509
     39 H8         -3.7261    1.6448    2.4959 H         1 <0>         0.1541
     40 H9          5.6987    0.5497    6.0211 H         1 <0>         0.1218
     41 H10         6.2211    2.1811    6.5050 H         1 <0>         0.1216
     42 H11         5.4907    0.7542    8.8303 H         1 <0>         0.4109
     43 H12         5.9593    0.1132   10.4855 H         1 <0>         0.1464
     44 H13         6.7634   -0.7810   12.6292 H         1 <0>         0.1494
     45 H14        10.6044   -1.5024   10.9119 H         1 <0>         0.1537
@<TRIPOS>BOND
     1    1    2 1
     2    1   33 1
     3    1   34 1
     4    1   35 1
     5    2    3 1
     6    2    4 1
     7    2   18 1
     8    4    5 2
     9    4    6 am
    10    6    7 1
    11    6   36 1
    12    7   12 ar
    13    7    8 ar
    14    8    9 ar
    15    8   37 1
    16    9   10 ar
    17    9   14 1
    18   10   11 ar
    19   10   38 1
    20   11   12 ar
    21   11   39 1
    22   12   13 1
    23   14   15 1
    24   14   16 1
    25   14   17 1
    26   18   19 1
    27   19   20 2
    28   19   21 1
    29   21   22 1
    30   21   40 1
    31   21   41 1
    32   22   23 am
    33   22   42 1
    34   23   24 2
    35   23   25 1
    36   25   30 ar
    37   25   26 ar
    38   26   27 ar
    39   26   43 1
    40   27   28 ar
    41   27   44 1
    42   28   29 ar
    43   28   32 1
    44   29   30 ar
    45   29   45 1
    46   30   31 1
@<TRIPOS>MOLECULE
ZINC14655517
   60    62     0     0     0
SMALL
USER_CHARGES
5-bromo-N-[[2-(cyclohexyl-methyl-carbamoyl)phenyl]carbamothioyl]-2-ethoxy-benzamide
@<TRIPOS>ATOM
      1 C1          0.5385   -2.7697   -5.5260 C.3       1 <0>        -0.1521
      2 C2         -0.7525   -2.5285   -4.7410 C.3       1 <0>         0.0465
      3 O1         -0.5612   -1.4429   -3.8317 O.3       1 <0>        -0.2739
      4 C3         -1.6177   -1.0975   -3.0539 C.ar      1 <0>         0.2134
      5 C4         -2.8164   -1.7870   -3.1612 C.ar      1 <0>        -0.2102
      6 C5         -3.8911   -1.4345   -2.3696 C.ar      1 <0>        -0.0158
      7 C6         -3.7820   -0.3916   -1.4628 C.ar      1 <0>        -0.1396
      8 C7         -2.5966    0.3013   -1.3395 C.ar      1 <0>        -0.0210
      9 C8         -1.5028   -0.0420   -2.1387 C.ar      1 <0>        -0.1710
     10 C9         -0.2332    0.6978   -2.0156 C.2       1 <0>         0.5365
     11 O2          0.7176    0.3929   -2.7090 O.2       1 <0>        -0.3758
     12 N1         -0.1270    1.7120   -1.1344 N.am      1 <0>        -0.6393
     13 C10         1.0335    2.3882   -1.0219 C.2       1 <0>         0.5162
     14 S1          2.3725    1.9588   -1.9983 S.2       1 <0>        -0.4754
     15 N2          1.1397    3.4024   -0.1406 N.pl3     1 <0>        -0.6134
     16 C11         2.3543    4.0640    0.0159 C.ar      1 <0>         0.1677
     17 C12         3.5453    3.3498   -0.0008 C.ar      1 <0>        -0.0789
     18 C13         4.7486    4.0085    0.1502 C.ar      1 <0>        -0.0899
     19 C14         4.7787    5.3823    0.3289 C.ar      1 <0>        -0.1145
     20 C15         3.6069    6.1067    0.3535 C.ar      1 <0>        -0.0852
     21 C16         2.3813    5.4549    0.1971 C.ar      1 <0>        -0.1352
     22 C17         1.1231    6.2243    0.2229 C.2       1 <0>         0.5574
     23 O3          0.3159    6.0999   -0.6779 O.2       1 <0>        -0.5290
     24 N3          0.8682    7.0652    1.2448 N.am      1 <0>        -0.6043
     25 C18         1.7911    7.1391    2.3802 C.3       1 <0>         0.0710
     26 C19        -0.3316    7.9054    1.2202 C.3       1 <0>         0.1382
     27 C20         0.0766    9.3791    1.2695 C.3       1 <0>        -0.1265
     28 C21        -1.1765   10.2566    1.2438 C.3       1 <0>        -0.1178
     29 C22        -2.0530    9.9294    2.4545 C.3       1 <0>        -0.1220
     30 C23        -2.4613    8.4557    2.4052 C.3       1 <0>        -0.1174
     31 C24        -1.2082    7.5783    2.4309 C.3       1 <0>        -0.1262
     32 Br1        -5.2634    0.0782   -0.3855 Br        1 <0>        -0.0372
     33 H1          0.3926   -3.5977   -6.2196 H         1 <0>         0.0804
     34 H2          0.7980   -1.8699   -6.0838 H         1 <0>         0.0703
     35 H3          1.3445   -3.0133   -4.8338 H         1 <0>         0.0701
     36 H4         -1.0121   -3.4282   -4.1832 H         1 <0>         0.0672
     37 H5         -1.5585   -2.2849   -5.4332 H         1 <0>         0.0672
     38 H6         -2.9091   -2.6010   -3.8648 H         1 <0>         0.1491
     39 H7         -4.8223   -1.9745   -2.4571 H         1 <0>         0.1447
     40 H8         -2.5144    1.1105   -0.6289 H         1 <0>         0.1371
     41 H9         -0.8869    1.9578   -0.5840 H         1 <0>         0.4073
     42 H10         0.3698    3.6712    0.3845 H         1 <0>         0.4068
     43 H11         3.5300    2.2784   -0.1359 H         1 <0>         0.1548
     44 H12         5.6724    3.4492    0.1331 H         1 <0>         0.1348
     45 H13         5.7254    5.8878    0.4500 H         1 <0>         0.1324
     46 H14         3.6359    7.1773    0.4931 H         1 <0>         0.1317
     47 H15         2.4992    7.9522    2.2206 H         1 <0>         0.0610
     48 H16         1.2276    7.3223    3.2951 H         1 <0>         0.0742
     49 H17         2.3331    6.1976    2.4697 H         1 <0>         0.0780
     50 H18        -0.8908    7.7136    0.3044 H         1 <0>         0.1018
     51 H19         0.6357    9.5708    2.1853 H         1 <0>         0.0670
     52 H20         0.7011    9.6121    0.4070 H         1 <0>         0.0658
     53 H21        -1.7356   10.0648    0.3280 H         1 <0>         0.0648
     54 H22        -0.8857   11.3065    1.2789 H         1 <0>         0.0675
     55 H23        -2.9458   10.5546    2.4362 H         1 <0>         0.0651
     56 H24        -1.4939   10.1212    3.3703 H         1 <0>         0.0631
     57 H25        -3.0204    8.2640    1.4894 H         1 <0>         0.0648
     58 H26        -3.0857    8.2227    3.2677 H         1 <0>         0.0669
     59 H27        -1.4990    6.5284    2.3958 H         1 <0>         0.0636
     60 H28        -0.6490    7.7700    3.3467 H         1 <0>         0.0674
@<TRIPOS>BOND
     1    1    2 1
     2    1   33 1
     3    1   34 1
     4    1   35 1
     5    2    3 1
     6    2   36 1
     7    2   37 1
     8    3    4 1
     9    4    9 ar
    10    4    5 ar
    11    5    6 ar
    12    5   38 1
    13    6    7 ar
    14    6   39 1
    15    7    8 ar
    16    7   32 1
    17    8    9 ar
    18    8   40 1
    19    9   10 1
    20   10   11 2
    21   10   12 am
    22   12   13 1
    23   12   41 1
    24   13   14 2
    25   13   15 1
    26   15   16 1
    27   15   42 1
    28   16   21 ar
    29   16   17 ar
    30   17   18 ar
    31   17   43 1
    32   18   19 ar
    33   18   44 1
    34   19   20 ar
    35   19   45 1
    36   20   21 ar
    37   20   46 1
    38   21   22 1
    39   22   23 2
    40   22   24 am
    41   24   25 1
    42   24   26 1
    43   25   47 1
    44   25   48 1
    45   25   49 1
    46   26   31 1
    47   26   27 1
    48   26   50 1
    49   27   28 1
    50   27   51 1
    51   27   52 1
    52   28   29 1
    53   28   53 1
    54   28   54 1
    55   29   30 1
    56   29   55 1
    57   29   56 1
    58   30   31 1
    59   30   57 1
    60   30   58 1
    61   31   59 1
    62   31   60 1
@<TRIPOS>MOLECULE
ZINC21228445
   58    61     0     0     0
SMALL
USER_CHARGES
(4S,7R)-4-(3-bromo-5-ethoxy-4-hydroxy-phenyl)-7-(4-ethoxyphenyl)-1,3,4,6,7,8-hexahydroquinoline-2,5-dione
@<TRIPOS>ATOM
      1 C1          3.6303    5.8983    0.0000 C.3       1 <0>        -0.1560
      2 C2          2.2254    5.2922    0.0097 C.3       1 <0>         0.0526
      3 O1          2.3216    3.8665    0.0011 O.3       1 <0>        -0.3159
      4 C3          1.1551    3.1693    0.0081 C.ar      1 <0>         0.1333
      5 C4          1.1746    1.7822    0.0004 C.ar      1 <0>        -0.1498
      6 C5         -0.0126    1.0758    0.0080 C.ar      1 <0>        -0.0689
      7 C6         -1.2196    1.7502    0.0173 C.ar      1 <0>        -0.1229
      8 C7         -1.2416    3.1326    0.0307 C.ar      1 <0>        -0.0720
      9 C8         -0.0572    3.8436    0.0232 C.ar      1 <0>        -0.2064
     10 C9         -2.5132    0.9772    0.0193 C.3       1 <0>        -0.0308
     11 H1         -2.2708   -0.0958    0.0194 H         1 <0>         0.0934
     12 C10        -3.3299    1.3391   -1.2233 C.3       1 <0>        -0.0943
     13 C11        -4.6463    0.6032   -1.1961 C.2       1 <0>         0.2313
     14 C12        -5.2403    0.2914   -0.0250 C.2       1 <0>        -0.2793
     15 C13        -6.5609   -0.4417   -0.0223 C.3       1 <0>         0.0138
     16 H2         -7.0917   -0.2287    0.9173 H         1 <0>         0.1136
     17 C14        -7.3978    0.0146   -1.2186 C.3       1 <0>        -0.1393
     18 C15        -6.5451   -0.0235   -2.4606 C.2       1 <0>         0.5251
     19 O2         -7.0442   -0.3066   -3.5286 O.2       1 <0>        -0.5018
     20 N1         -5.2321    0.2553   -2.3867 N.am      1 <0>        -0.6750
     21 C16        -6.3126   -1.9249   -0.1191 C.ar      1 <0>        -0.0755
     22 C17        -6.7547   -2.7654    0.8861 C.ar      1 <0>        -0.1404
     23 C18        -6.5274   -4.1293    0.7991 C.ar      1 <0>         0.1039
     24 C19        -5.8542   -4.6508   -0.3016 C.ar      1 <0>         0.1601
     25 C20        -5.4140   -3.8033   -1.3061 C.ar      1 <0>        -0.1540
     26 C21        -5.6486   -2.4428   -1.2150 C.ar      1 <0>        -0.0927
     27 Br1        -4.4993   -4.5071   -2.8040 Br        1 <0>        -0.0314
     28 O3         -5.6284   -5.9890   -0.3912 O.3       1 <0>        -0.4883
     29 O4         -6.9610   -4.9567    1.7874 O.3       1 <0>        -0.3003
     30 C22        -7.6441   -4.3516    2.8871 C.3       1 <0>         0.0496
     31 C23        -8.0526   -5.4319    3.8905 C.3       1 <0>        -0.1537
     32 C24        -4.6542    0.6311    1.2057 C.2       1 <0>         0.4091
     33 O5         -5.2257    0.3460    2.2392 O.2       1 <0>        -0.4673
     34 C25        -3.3290    1.3427    1.2637 C.3       1 <0>        -0.1614
     35 H3          3.5562    6.9958    0.0066 H         1 <0>         0.0806
     36 H4          4.1640    5.5723   -0.9049 H         1 <0>         0.0676
     37 H5          4.1806    5.5626    0.8913 H         1 <0>         0.0678
     38 H6          1.6917    5.6182    0.9146 H         1 <0>         0.0635
     39 H7          1.6750    5.6279   -0.8816 H         1 <0>         0.0632
     40 H8          2.1171    1.2550   -0.0118 H         1 <0>         0.1318
     41 H9          0.0021   -0.0041    0.0020 H         1 <0>         0.1308
     42 H10        -2.1857    3.6571    0.0422 H         1 <0>         0.1250
     43 H11        -0.0750    4.9235    0.0296 H         1 <0>         0.1284
     44 H12        -3.5174    2.4229   -1.2360 H         1 <0>         0.1064
     45 H13        -2.7701    1.0533   -2.1261 H         1 <0>         0.0969
     46 H14        -8.2597   -0.6578   -1.3409 H         1 <0>         0.1162
     47 H15        -7.7548    1.0407   -1.0463 H         1 <0>         0.1139
     48 H16        -4.6256    0.2006   -3.3028 H         1 <0>         0.4414
     49 H17        -7.2769   -2.3584    1.7393 H         1 <0>         0.1440
     50 H18        -5.3088   -1.7836   -2.0002 H         1 <0>         0.1350
     51 H19        -5.0962   -6.3999   -1.2618 H         1 <0>         0.4278
     52 H20        -6.9780   -3.6274    3.3789 H         1 <0>         0.0655
     53 H21        -8.5423   -3.8332    2.5204 H         1 <0>         0.0637
     54 H22        -8.5784   -4.9661    4.7370 H         1 <0>         0.0811
     55 H23        -7.1543   -5.9502    4.2572 H         1 <0>         0.0677
     56 H24        -8.7187   -6.1561    3.3987 H         1 <0>         0.0675
     57 H25        -2.7805    1.0334    2.1656 H         1 <0>         0.1018
     58 H26        -3.4922    2.4302    1.2888 H         1 <0>         0.1042
@<TRIPOS>BOND
     1    1    2 1
     2    1   35 1
     3    1   36 1
     4    1   37 1
     5    2    3 1
     6    2   38 1
     7    2   39 1
     8    3    4 1
     9    4    9 ar
    10    4    5 ar
    11    5    6 ar
    12    5   40 1
    13    6    7 ar
    14    6   41 1
    15    7    8 ar
    16    7   10 1
    17    8    9 ar
    18    8   42 1
    19    9   43 1
    20   10   11 1
    21   10   34 1
    22   10   12 1
    23   12   13 1
    24   12   44 1
    25   12   45 1
    26   13   20 1
    27   13   14 2
    28   14   15 1
    29   14   32 1
    30   15   16 1
    31   15   17 1
    32   15   21 1
    33   17   18 1
    34   17   46 1
    35   17   47 1
    36   18   19 2
    37   18   20 am
    38   20   48 1
    39   21   26 ar
    40   21   22 ar
    41   22   23 ar
    42   22   49 1
    43   23   24 ar
    44   23   29 1
    45   24   25 ar
    46   24   28 1
    47   25   26 ar
    48   25   27 1
    49   26   50 1
    50   28   51 1
    51   29   30 1
    52   30   31 1
    53   30   52 1
    54   30   53 1
    55   31   54 1
    56   31   55 1
    57   31   56 1
    58   32   33 2
    59   32   34 1
    60   34   57 1
    61   34   58 1
@<TRIPOS>MOLECULE
ZINC36552861
   63    66     0     0     0
SMALL
USER_CHARGES

@<TRIPOS>ATOM
      1 C1          1.1879    2.6007    2.3942 C.ar      1 <0>        -0.0930
      2 C2          1.9059    2.4602    1.2224 C.ar      1 <0>        -0.1164
      3 C3          3.2287    2.8790    1.1653 C.ar      1 <0>         0.1369
      4 C4          3.8262    3.4382    2.2872 C.ar      1 <0>        -0.1027
      5 C5          3.1029    3.5762    3.4568 C.ar      1 <0>        -0.0233
      6 C6          1.7846    3.1576    3.5099 C.ar      1 <0>        -0.0987
      7 Cl1         3.8485    4.2745    4.8605 Cl        1 <0>        -0.0564
      8 N1          3.9582    2.7373   -0.0203 N.am      1 <0>        -0.5530
      9 C7          4.9356    1.6543   -0.1540 C.3       1 <0>         0.1731
     10 H1          5.9005    2.0695   -0.4451 H         1 <0>         0.1183
     11 C8          5.0743    0.9372    1.1642 C.ar      1 <0>        -0.0753
     12 C9          3.9624    0.3816    1.7691 C.ar      1 <0>        -0.0919
     13 C10         4.0896   -0.2762    2.9782 C.ar      1 <0>        -0.0651
     14 C11         5.3288   -0.3787    3.5823 C.ar      1 <0>        -0.1653
     15 C12         6.4408    0.1762    2.9769 C.ar      1 <0>        -0.0661
     16 C13         6.3143    0.8302    1.7657 C.ar      1 <0>        -0.0991
     17 C14         5.4673   -1.0948    4.9010 C.3       1 <0>         0.5064
     18 F1          5.7276   -2.4500    4.6706 F         1 <0>        -0.1745
     19 F2          6.5232   -0.5341    5.6275 F         1 <0>        -0.1745
     20 F3          4.2797   -0.9653    5.6290 F         1 <0>        -0.1744
     21 C15         4.4683    0.6831   -1.2074 C.2       1 <0>         0.5163
     22 O1          3.4218    0.8767   -1.7891 O.2       1 <0>        -0.5130
     23 N2          5.2132   -0.4004   -1.5030 N.am      1 <0>        -0.7209
     24 C16         4.7590   -1.3445   -2.5270 C.3       1 <0>         0.1480
     25 C17         3.8001   -2.3571   -1.8977 C.3       1 <0>        -0.1261
     26 C18         3.3257   -3.3431   -2.9671 C.3       1 <0>        -0.1174
     27 C19         4.5321   -4.0792   -3.5533 C.3       1 <0>        -0.1225
     28 C20         5.4910   -3.0666   -4.1826 C.3       1 <0>        -0.1164
     29 C21         5.9654   -2.0806   -3.1132 C.3       1 <0>        -0.1268
     30 C22         3.7617    3.5973   -1.0393 C.2       1 <0>         0.5185
     31 O2          4.3505    3.4399   -2.0878 O.2       1 <0>        -0.4936
     32 C23         2.8103    4.7546   -0.8758 C.3       1 <0>         0.1211
     33 H2          2.8795    5.1593    0.1339 H         1 <0>         0.1124
     34 C24         1.3631    4.3029   -1.1726 C.3       1 <0>        -0.1206
     35 C25         1.2233    4.6574   -2.6712 C.3       1 <0>        -0.1567
     36 C26         2.2330    5.7632   -2.8866 C.2       1 <0>         0.5296
     37 O3          2.2522    6.5098   -3.8422 O.2       1 <0>        -0.5238
     38 N3          3.1068    5.7992   -1.8631 N.am      1 <0>        -0.7128
     39 H3          0.1578    2.2791    2.4373 H         1 <0>         0.1426
     40 H4          1.4389    2.0247    0.3514 H         1 <0>         0.1408
     41 H5          4.8549    3.7644    2.2460 H         1 <0>         0.1374
     42 H6          1.2209    3.2666    4.4247 H         1 <0>         0.1400
     43 H7          2.9943    0.4617    1.2972 H         1 <0>         0.1384
     44 H8          3.2208   -0.7096    3.4512 H         1 <0>         0.1396
     45 H9          7.4089    0.0964    3.4490 H         1 <0>         0.1425
     46 H10         7.1837    1.2605    1.2909 H         1 <0>         0.1412
     47 H11         6.0502   -0.5552   -1.0377 H         1 <0>         0.3990
     48 H12         4.2446   -0.8011   -3.3196 H         1 <0>         0.0895
     49 H13         4.3144   -2.9005   -1.1050 H         1 <0>         0.0632
     50 H14         2.9406   -1.8327   -1.4801 H         1 <0>         0.0652
     51 H15         2.6425   -4.0645   -2.5188 H         1 <0>         0.0654
     52 H16         2.8113   -2.7997   -3.7597 H         1 <0>         0.0645
     53 H17         5.0464   -4.6226   -2.7607 H         1 <0>         0.0628
     54 H18         4.1941   -4.7816   -4.3152 H         1 <0>         0.0649
     55 H19         6.3504   -3.5910   -4.6002 H         1 <0>         0.0684
     56 H20         4.9766   -2.5231   -4.9752 H         1 <0>         0.0657
     57 H21         6.6485   -1.3592   -3.5615 H         1 <0>         0.0693
     58 H22         6.4797   -2.6240   -2.3206 H         1 <0>         0.0682
     59 H23         1.2486    3.2307   -1.0130 H         1 <0>         0.0984
     60 H24         0.6482    4.8639   -0.5707 H         1 <0>         0.0992
     61 H25         1.4647    3.7943   -3.2915 H         1 <0>         0.1103
     62 H26         0.2159    5.0134   -2.8866 H         1 <0>         0.1090
     63 H27         3.8373    6.4328   -1.7870 H         1 <0>         0.4146
@<TRIPOS>BOND
     1    1    6 ar
     2    1    2 ar
     3    1   39 1
     4    2    3 ar
     5    2   40 1
     6    3    4 ar
     7    3    8 1
     8    4    5 ar
     9    4   41 1
    10    5    6 ar
    11    5    7 1
    12    6   42 1
    13    8    9 1
    14    8   30 am
    15    9   10 1
    16    9   11 1
    17    9   21 1
    18   11   16 ar
    19   11   12 ar
    20   12   13 ar
    21   12   43 1
    22   13   14 ar
    23   13   44 1
    24   14   15 ar
    25   14   17 1
    26   15   16 ar
    27   15   45 1
    28   16   46 1
    29   17   18 1
    30   17   19 1
    31   17   20 1
    32   21   22 2
    33   21   23 am
    34   23   24 1
    35   23   47 1
    36   24   29 1
    37   24   25 1
    38   24   48 1
    39   25   26 1
    40   25   49 1
    41   25   50 1
    42   26   27 1
    43   26   51 1
    44   26   52 1
    45   27   28 1
    46   27   53 1
    47   27   54 1
    48   28   29 1
    49   28   55 1
    50   28   56 1
    51   29   57 1
    52   29   58 1
    53   30   31 2
    54   30   32 1
    55   32   33 1
    56   32   38 1
    57   32   34 1
    58   34   35 1
    59   34   59 1
    60   34   60 1
    61   35   36 1
    62   35   61 1
    63   35   62 1
    64   36   37 2
    65   36   38 am
    66   38   63 1
@<TRIPOS>MOLECULE
ZINC39992771
   56    59     0     0     0
SMALL
USER_CHARGES

@<TRIPOS>ATOM
      1 C1         -0.0157    1.3058    0.0092 C.2       1 <0>        -0.1611
      2 C2          0.0021   -0.0041    0.0020 C.2       1 <0>        -0.1804
      3 C3          1.3172   -0.7397   -0.0145 C.3       1 <0>         0.1443
      4 N1          1.3674   -1.6756    1.1115 N.am      1 <0>        -0.7211
      5 C4          2.4568   -2.4468    1.2987 C.2       1 <0>         0.5793
      6 O1          3.3988   -2.3657    0.5323 O.2       1 <0>        -0.5295
      7 C5          2.5070   -3.3832    2.4254 C.2       1 <0>        -0.2301
      8 C6          2.0355   -4.7509    2.2944 C.2       1 <0>        -0.0608
      9 C7          2.1498   -5.4851    3.4220 C.2       1 <0>        -0.2232
     10 S1          2.8623   -4.3812    4.6062 S.3       1 <0>         0.2933
     11 C8          3.0119   -3.0025    3.6592 C.2       1 <0>         0.0366
     12 N2          3.5212   -1.7680    4.0269 N.am      1 <0>        -0.6147
     13 C9          3.9734   -1.5720    5.2813 C.2       1 <0>         0.5750
     14 O2          3.9343   -2.4798    6.0911 O.2       1 <0>        -0.4922
     15 C10         4.5128   -0.2644    5.6707 C.2       1 <0>        -0.1419
     16 C11         4.9787   -0.0625    6.9629 C.2       1 <0>         0.1157
     17 C12         5.4949    1.1888    7.3356 C.2       1 <0>        -0.0568
     18 C13         5.9961    1.5232    8.5857 C.2       1 <0>        -0.1000
     19 C14         6.3983    2.8559    8.5150 C.2       1 <0>        -0.2024
     20 C15         6.1322    3.2909    7.2334 C.2       1 <0>         0.0873
     21 O3          5.5950    2.2739    6.5379 O.3       1 <0>        -0.1498
     22 C16         6.3985    4.6448    6.7114 C.ar      1 <0>        -0.0361
     23 C17         6.9743    5.6145    7.5367 C.ar      1 <0>        -0.0731
     24 C18         7.2205    6.8778    7.0426 C.ar      1 <0>        -0.1085
     25 C19         6.8981    7.1870    5.7314 C.ar      1 <0>        -0.0190
     26 C20         6.3272    6.2305    4.9080 C.ar      1 <0>        -0.1078
     27 C21         6.0814    4.9615    5.3877 C.ar      1 <0>        -0.0777
     28 Cl1         7.2104    8.7805    5.1174 Cl        1 <0>        -0.0569
     29 C22         4.5589    0.8036    4.7179 C.1       1 <0>         0.2359
     30 N3          4.5954    1.6509    3.9621 N.1       1 <0>        -0.3869
     31 C23         1.7532   -6.9172    3.6071 C.3       1 <0>        -0.0345
     32 C24         0.8483   -7.3224    2.4341 C.3       1 <0>        -0.1144
     33 C25         1.5023   -6.8717    1.1249 C.3       1 <0>        -0.1193
     34 C26         1.4574   -5.3457    1.0187 C.3       1 <0>        -0.0599
     35 H1          0.9122    1.8585    0.0033 H         1 <0>         0.1002
     36 H2         -0.9582    1.8330    0.0166 H         1 <0>         0.1053
     37 H3         -0.9258   -0.5567    0.0079 H         1 <0>         0.1170
     38 H4          1.4134   -1.2911   -0.9498 H         1 <0>         0.0785
     39 H5          2.1349   -0.0241    0.0711 H         1 <0>         0.0713
     40 H6          0.6167   -1.7402    1.7223 H         1 <0>         0.4033
     41 H7          3.5524   -1.0445    3.3815 H         1 <0>         0.4182
     42 H8          4.9440   -0.8680    7.6815 H         1 <0>         0.1918
     43 H9          6.0617    0.8756    9.4476 H         1 <0>         0.1730
     44 H10         6.8355    3.4378    9.3128 H         1 <0>         0.1662
     45 H11         7.2254    5.3749    8.5594 H         1 <0>         0.1429
     46 H12         7.6654    7.6282    7.6794 H         1 <0>         0.1450
     47 H13         6.0782    6.4780    3.8866 H         1 <0>         0.1422
     48 H14         5.6407    4.2152    4.7434 H         1 <0>         0.1404
     49 H15         2.6432   -7.5464    3.6188 H         1 <0>         0.0827
     50 H16         1.2106   -7.0299    4.5457 H         1 <0>         0.0816
     51 H17         0.7238   -8.4052    2.4262 H         1 <0>         0.0738
     52 H18        -0.1244   -6.8421    2.5406 H         1 <0>         0.0678
     53 H19         2.5397   -7.2057    1.1046 H         1 <0>         0.0675
     54 H20         0.9659   -7.3091    0.2829 H         1 <0>         0.0699
     55 H21         0.4251   -5.0177    0.8974 H         1 <0>         0.0766
     56 H22         2.0495   -5.0212    0.1630 H         1 <0>         0.0750
@<TRIPOS>BOND
     1    1    2 2
     2    1   35 1
     3    1   36 1
     4    2    3 1
     5    2   37 1
     6    3    4 1
     7    3   38 1
     8    3   39 1
     9    4    5 am
    10    4   40 1
    11    5    6 2
    12    5    7 1
    13    7   11 2
    14    7    8 1
    15    8   34 1
    16    8    9 2
    17    9   10 1
    18    9   31 1
    19   10   11 1
    20   11   12 1
    21   12   13 am
    22   12   41 1
    23   13   14 2
    24   13   15 1
    25   15   16 2
    26   15   29 1
    27   16   17 1
    28   16   42 1
    29   17   21 1
    30   17   18 2
    31   18   19 1
    32   18   43 1
    33   19   20 2
    34   19   44 1
    35   20   21 1
    36   20   22 1
    37   22   27 ar
    38   22   23 ar
    39   23   24 ar
    40   23   45 1
    41   24   25 ar
    42   24   46 1
    43   25   26 ar
    44   25   28 1
    45   26   27 ar
    46   26   47 1
    47   27   48 1
    48   29   30 3
    49   31   32 1
    50   31   49 1
    51   31   50 1
    52   32   33 1
    53   32   51 1
    54   32   52 1
    55   33   34 1
    56   33   53 1
    57   33   54 1
    58   34   55 1
    59   34   56 1
@<TRIPOS>MOLECULE
ZINC08455982
   56    58     0     0     0
SMALL
USER_CHARGES
2,2-dichloro-N-[1-[4-[2-(4-chloro-2-methyl-phenoxy)propanoylamino]phenyl]ethylideneamino]-1-methyl-cyclopropane-1-carboxamide
@<TRIPOS>ATOM
      1 C1         -5.0999   15.9543    6.5307 C.3       1 <0>        -0.1097
      2 C2         -3.6860   16.4679    6.4406 C.ar      1 <0>        -0.0961
      3 C3         -3.4513   17.8119    6.2228 C.ar      1 <0>        -0.0731
      4 C4         -2.1535   18.2839    6.1400 C.ar      1 <0>        -0.0657
      5 C5         -1.0880   17.4112    6.2752 C.ar      1 <0>        -0.0748
      6 C6         -1.3186   16.0676    6.4974 C.ar      1 <0>        -0.1966
      7 C7         -2.6194   15.5916    6.5759 C.ar      1 <0>         0.1313
      8 O1         -2.8483   14.2691    6.7907 O.3       1 <0>        -0.2772
      9 C8         -1.7080   13.4081    6.8100 C.3       1 <0>         0.0674
     10 H1         -0.9675   13.7698    6.0966 H         1 <0>         0.1058
     11 C9         -1.1007   13.3974    8.2142 C.3       1 <0>        -0.1802
     12 C10        -2.1274   12.0105    6.4335 C.2       1 <0>         0.5197
     13 O2         -3.2886   11.7749    6.1741 O.2       1 <0>        -0.4893
     14 N1         -1.2122   11.0223    6.3849 N.am      1 <0>        -0.6694
     15 C11        -1.5811    9.7494    5.9413 C.ar      1 <0>         0.1595
     16 C12        -0.6901    8.9920    5.1891 C.ar      1 <0>        -0.1449
     17 C13        -1.0501    7.7369    4.7501 C.ar      1 <0>        -0.0574
     18 C14        -2.3127    7.2250    5.0616 C.ar      1 <0>        -0.0615
     19 C15        -3.2075    7.9915    5.8135 C.ar      1 <0>        -0.0721
     20 C16        -2.8380    9.2435    6.2537 C.ar      1 <0>        -0.1221
     21 C17        -2.7020    5.8826    4.5934 C.2       1 <0>         0.1419
     22 N2         -1.8718    5.1744    3.8907 N.2       1 <0>        -0.2294
     23 N3         -2.2418    3.8985    3.4456 N.am      1 <0>        -0.5772
     24 C18        -1.3797    3.1630    2.7160 C.2       1 <0>         0.5610
     25 O3         -0.2833    3.6058    2.4447 O.2       1 <0>        -0.4704
     26 C19        -1.7777    1.7907    2.2373 C.3       1 <0>        -0.1339
     27 C20        -1.9895    1.6008    0.7332 C.3       1 <0>        -0.1150
     28 C21        -0.7549    1.0057    1.4134 C.3       1 <0>         0.0260
     29 Cl1        -0.7061   -0.7833    1.6324 Cl        1 <0>        -0.0795
     30 Cl2         0.8345    1.7932    1.0902 Cl        1 <0>        -0.0494
     31 C22        -2.6807    0.9974    3.1839 C.3       1 <0>        -0.1222
     32 C23        -4.0640    5.3326    4.9304 C.3       1 <0>        -0.1600
     33 Cl3        -1.8612   19.9731    5.8668 Cl        1 <0>        -0.0673
     34 H2         -5.4355   15.9936    7.5670 H         1 <0>         0.0734
     35 H3         -5.7514   16.5736    5.9141 H         1 <0>         0.0691
     36 H4         -5.1356   14.9242    6.1761 H         1 <0>         0.0778
     37 H5         -4.2816   18.4946    6.1174 H         1 <0>         0.1419
     38 H6         -0.0756   17.7815    6.2106 H         1 <0>         0.1375
     39 H7         -0.4868   15.3875    6.6069 H         1 <0>         0.1387
     40 H8         -0.7973   14.4083    8.4865 H         1 <0>         0.0817
     41 H9         -1.8412   13.0357    8.9276 H         1 <0>         0.0795
     42 H10        -0.2309   12.7407    8.2289 H         1 <0>         0.0807
     43 H11        -0.2975   11.1946    6.6578 H         1 <0>         0.4138
     44 H12         0.2855    9.3881    4.9491 H         1 <0>         0.1321
     45 H13        -0.3574    7.1490    4.1661 H         1 <0>         0.1411
     46 H14        -4.1857    7.6012    6.0525 H         1 <0>         0.1350
     47 H15        -3.5271    9.8345    6.8388 H         1 <0>         0.1436
     48 H16        -3.1184    3.5445    3.6626 H         1 <0>         0.3865
     49 H17        -1.8409    2.4686    0.0906 H         1 <0>         0.1280
     50 H18        -2.7720    0.9107    0.4177 H         1 <0>         0.1349
     51 H19        -2.0673    0.4692    3.9138 H         1 <0>         0.0815
     52 H20        -3.3539    1.6807    3.7016 H         1 <0>         0.0700
     53 H21        -3.2644    0.2771    2.6107 H         1 <0>         0.0828
     54 H22        -4.0130    4.7892    5.8740 H         1 <0>         0.0902
     55 H23        -4.7749    6.1537    5.0220 H         1 <0>         0.0924
     56 H24        -4.3890    4.6571    4.1392 H         1 <0>         0.0693
@<TRIPOS>BOND
     1    1    2 1
     2    1   34 1
     3    1   35 1
     4    1   36 1
     5    2    7 ar
     6    2    3 ar
     7    3    4 ar
     8    3   37 1
     9    4    5 ar
    10    4   33 1
    11    5    6 ar
    12    5   38 1
    13    6    7 ar
    14    6   39 1
    15    7    8 1
    16    8    9 1
    17    9   10 1
    18    9   11 1
    19    9   12 1
    20   11   40 1
    21   11   41 1
    22   11   42 1
    23   12   13 2
    24   12   14 am
    25   14   15 1
    26   14   43 1
    27   15   20 ar
    28   15   16 ar
    29   16   17 ar
    30   16   44 1
    31   17   18 ar
    32   17   45 1
    33   18   19 ar
    34   18   21 1
    35   19   20 ar
    36   19   46 1
    37   20   47 1
    38   21   22 2
    39   21   32 1
    40   22   23 1
    41   23   24 am
    42   23   48 1
    43   24   25 2
    44   24   26 1
    45   26   28 1
    46   26   27 1
    47   26   31 1
    48   27   28 1
    49   27   49 1
    50   27   50 1
    51   28   29 1
    52   28   30 1
    53   31   51 1
    54   31   52 1
    55   31   53 1
    56   32   54 1
    57   32   55 1
    58   32   56 1
@<TRIPOS>MOLECULE
ZINC12494295
   59    63     0     0     0
SMALL
USER_CHARGES
N-[(4-indolin-1-ylsulfonylphenyl)carbamothioyl]-4-phenyl-benzamide
@<TRIPOS>ATOM
      1 C1         -3.2831   -0.7176    1.6838 C.ar      1 <0>        -0.1103
      2 C2         -2.2652   -0.2238    0.8877 C.ar      1 <0>        -0.1189
      3 C3         -1.0429   -0.8633    0.8504 C.ar      1 <0>        -0.1045
      4 C4         -0.8318   -2.0032    1.6246 C.ar      1 <0>        -0.0615
      5 C5         -1.8597   -2.4934    2.4286 C.ar      1 <0>        -0.1032
      6 C6         -3.0795   -1.8486    2.4539 C.ar      1 <0>        -0.1179
      7 C7          0.4809   -2.6919    1.5928 C.ar      1 <0>        -0.0061
      8 C8          1.5054   -2.2021    0.7823 C.ar      1 <0>        -0.1182
      9 C9          2.7264   -2.8372    0.7562 C.ar      1 <0>        -0.0840
     10 C10         2.9356   -3.9800    1.5328 C.ar      1 <0>        -0.1407
     11 C11         1.9067   -4.4729    2.3399 C.ar      1 <0>        -0.0449
     12 C12         0.6887   -3.8324    2.3689 C.ar      1 <0>        -0.1169
     13 C13         4.2427   -4.6657    1.5011 C.2       1 <0>         0.5349
     14 O1          4.4243   -5.6594    2.1771 O.2       1 <0>        -0.3975
     15 N1          5.2346   -4.1898    0.7225 N.am      1 <0>        -0.6371
     16 C14         6.4279   -4.8158    0.6936 C.2       1 <0>         0.5075
     17 S1          6.6836   -6.2154    1.6457 S.2       1 <0>        -0.4658
     18 N2          7.4198   -4.3399   -0.0850 N.pl3     1 <0>        -0.6289
     19 C15         8.6846   -4.9360   -0.0486 C.ar      1 <0>         0.1788
     20 C16         9.8249   -4.1456    0.0151 C.ar      1 <0>        -0.1389
     21 C17        11.0721   -4.7375    0.0553 C.ar      1 <0>        -0.0144
     22 C18        11.1867   -6.1151    0.0225 C.ar      1 <0>        -0.6716
     23 C19        10.0536   -6.9048   -0.0462 C.ar      1 <0>        -0.0082
     24 C20         8.8032   -6.3194   -0.0818 C.ar      1 <0>        -0.0899
     25 S2         12.7801   -6.8660    0.0678 S.o2      1 <0>         2.6948
     26 O2         13.6537   -5.9282    0.6813 O.2       1 <0>        -0.9398
     27 O3         12.5954   -8.1803    0.5754 O.2       1 <0>        -0.9349
     28 N3         13.2883   -7.0311   -1.4996 N.pl3     1 <0>        -0.9379
     29 C21        14.0562   -6.0288   -2.2432 C.3       1 <0>         0.1126
     30 C22        14.2794   -6.6431   -3.6348 C.3       1 <0>        -0.0822
     31 C23        13.5972   -7.9911   -3.5686 C.ar      1 <0>        -0.1310
     32 C24        13.0527   -8.1477   -2.3033 C.ar      1 <0>         0.1570
     33 C25        12.3608   -9.3231   -2.0042 C.ar      1 <0>        -0.1527
     34 C26        12.2329  -10.3152   -2.9530 C.ar      1 <0>        -0.0850
     35 C27        12.7849  -10.1514   -4.2101 C.ar      1 <0>        -0.1410
     36 C28        13.4669   -8.9880   -4.5157 C.ar      1 <0>        -0.0773
     37 H1         -4.2393   -0.2159    1.7070 H         1 <0>         0.1257
     38 H2         -2.4286    0.6617    0.2914 H         1 <0>         0.1268
     39 H3         -0.2500   -0.4789    0.2259 H         1 <0>         0.1263
     40 H4         -1.7017   -3.3759    3.0308 H         1 <0>         0.1282
     41 H5         -3.8767   -2.2274    3.0764 H         1 <0>         0.1276
     42 H6          1.3419   -1.3217    0.1785 H         1 <0>         0.1353
     43 H7          3.5207   -2.4555    0.1318 H         1 <0>         0.1240
     44 H8          2.0671   -5.3562    2.9403 H         1 <0>         0.1446
     45 H9         -0.1066   -4.2131    2.9926 H         1 <0>         0.1382
     46 H10         5.0897   -3.3968    0.1830 H         1 <0>         0.4103
     47 H11         7.2565   -3.5841   -0.6706 H         1 <0>         0.4114
     48 H12         9.7362   -3.0695    0.0369 H         1 <0>         0.1381
     49 H13        11.9590   -4.1235    0.1086 H         1 <0>         0.1469
     50 H14        10.1465   -7.9805   -0.0716 H         1 <0>         0.1472
     51 H15         7.9187   -6.9367   -0.1351 H         1 <0>         0.1577
     52 H16        13.4884   -5.1020   -2.3256 H         1 <0>         0.0835
     53 H17        15.0124   -5.8451   -1.7532 H         1 <0>         0.0915
     54 H18        13.8195   -6.0215   -4.4031 H         1 <0>         0.0912
     55 H19        15.3447   -6.7652   -3.8303 H         1 <0>         0.0928
     56 H20        11.9279   -9.4576   -1.0239 H         1 <0>         0.1434
     57 H21        11.7001  -11.2235   -2.7135 H         1 <0>         0.1316
     58 H22        12.6833  -10.9301   -4.9515 H         1 <0>         0.1278
     59 H23        13.8989   -8.8587   -5.4970 H         1 <0>         0.1257
@<TRIPOS>BOND
     1    1    6 ar
     2    1    2 ar
     3    1   37 1
     4    2    3 ar
     5    2   38 1
     6    3    4 ar
     7    3   39 1
     8    4    5 ar
     9    4    7 1
    10    5    6 ar
    11    5   40 1
    12    6   41 1
    13    7   12 ar
    14    7    8 ar
    15    8    9 ar
    16    8   42 1
    17    9   10 ar
    18    9   43 1
    19   10   11 ar
    20   10   13 1
    21   11   12 ar
    22   11   44 1
    23   12   45 1
    24   13   14 2
    25   13   15 am
    26   15   16 1
    27   15   46 1
    28   16   17 2
    29   16   18 1
    30   18   19 1
    31   18   47 1
    32   19   24 ar
    33   19   20 ar
    34   20   21 ar
    35   20   48 1
    36   21   22 ar
    37   21   49 1
    38   22   23 ar
    39   22   25 1
    40   23   24 ar
    41   23   50 1
    42   24   51 1
    43   25   26 2
    44   25   27 2
    45   25   28 1
    46   28   32 1
    47   28   29 1
    48   29   30 1
    49   29   52 1
    50   29   53 1
    51   30   31 1
    52   30   54 1
    53   30   55 1
    54   31   36 ar
    55   31   32 ar
    56   32   33 ar
    57   33   34 ar
    58   33   56 1
    59   34   35 ar
    60   34   57 1
    61   35   36 ar
    62   35   58 1
    63   36   59 1
@<TRIPOS>MOLECULE
ZINC00755246
   48    50     0     0     0
SMALL
USER_CHARGES
2-amino-6-[2-(4-bromophenyl)-2-oxo-ethyl]sulfanyl-4-(4-ethoxyphenyl)pyridine-3,5-dicarbonitrile
@<TRIPOS>ATOM
      1 C1          9.5047   -3.2609    0.8606 C.3       1 <0>        -0.1555
      2 C2          8.2092   -2.4716    1.0599 C.3       1 <0>         0.0498
      3 O1          7.3719   -2.6330   -0.0868 O.3       1 <0>        -0.3112
      4 C3          6.1747   -1.9922   -0.0710 C.ar      1 <0>         0.1532
      5 C4          5.3129   -2.1074   -1.1546 C.ar      1 <0>        -0.1505
      6 C5          4.0971   -1.4591   -1.1421 C.ar      1 <0>        -0.0449
      7 C6          3.7319   -0.6852   -0.0387 C.ar      1 <0>        -0.1306
      8 C7          4.6033   -0.5672    1.0461 C.ar      1 <0>        -0.0424
      9 C8          5.8151   -1.2228    1.0284 C.ar      1 <0>        -0.2076
     10 C9          2.4286    0.0124   -0.0215 C.ar      1 <0>         0.1683
     11 C10         1.2184   -0.7110   -0.0139 C.ar      1 <0>        -0.1615
     12 C11         0.0021   -0.0041    0.0020 C.ar      1 <0>         0.5029
     13 N1         -0.0159    1.3193    0.0093 N.ar      1 <0>        -0.5553
     14 C12         1.0956    2.0399    0.0026 C.ar      1 <0>         0.2304
     15 C13         2.3594    1.4199   -0.0128 C.ar      1 <0>        -0.1232
     16 C14         3.5557    2.2070   -0.0205 C.1       1 <0>         0.2564
     17 N2          4.5046    2.8314   -0.0265 N.1       1 <0>        -0.3922
     18 S1          0.9908    3.7987    0.0124 S.3       1 <0>         0.0434
     19 C15        -0.8072    4.0063    0.0302 C.3       1 <0>        -0.1775
     20 C16        -1.1431    5.4754    0.0408 C.2       1 <0>         0.4113
     21 O2         -0.2546    6.3006    0.0367 O.2       1 <0>        -0.4263
     22 C17        -2.5490    5.9083    0.0561 C.ar      1 <0>        -0.1504
     23 C18        -3.5767    4.9593    0.0551 C.ar      1 <0>        -0.0648
     24 C19        -4.8915    5.3724    0.0763 C.ar      1 <0>        -0.1031
     25 C20        -5.1965    6.7236    0.0855 C.ar      1 <0>        -0.0598
     26 C21        -4.1841    7.6692    0.0803 C.ar      1 <0>        -0.1018
     27 C22        -2.8646    7.2711    0.0659 C.ar      1 <0>        -0.0503
     28 Br1        -7.0036    7.2802    0.1059 Br        1 <0>        -0.0359
     29 N3         -1.1897   -0.7007    0.0097 N.pl3     1 <0>        -0.8448
     30 C23         1.2272   -2.1429   -0.0216 C.1       1 <0>         0.2589
     31 N4          1.2341   -3.2789   -0.0278 N.1       1 <0>        -0.4046
     32 H1         10.1492   -3.1367    1.7433 H         1 <0>         0.0816
     33 H2         10.0284   -2.8868   -0.0314 H         1 <0>         0.0684
     34 H3          9.2678   -4.3267    0.7267 H         1 <0>         0.0681
     35 H4          7.6855   -2.8457    1.9519 H         1 <0>         0.0655
     36 H5          8.4461   -1.4058    1.1939 H         1 <0>         0.0661
     37 H6          5.5961   -2.7061   -2.0077 H         1 <0>         0.1387
     38 H7          3.4277   -1.5491   -1.9848 H         1 <0>         0.1344
     39 H8          4.3261    0.0338    1.8995 H         1 <0>         0.1310
     40 H9          6.4879   -1.1353    1.8688 H         1 <0>         0.1356
     41 H10        -1.2393    3.5378   -0.8664 H         1 <0>         0.1385
     42 H11        -1.2226    3.5287    0.9298 H         1 <0>         0.1385
     43 H12        -3.3404    3.9055    0.0431 H         1 <0>         0.1446
     44 H13        -5.6860    4.6408    0.0811 H         1 <0>         0.1424
     45 H14        -4.4294    8.7210    0.0879 H         1 <0>         0.1427
     46 H15        -2.0764    8.0094    0.0626 H         1 <0>         0.1461
     47 H16        -2.1452   -0.1558    0.0221 H         1 <0>         0.4385
     48 H17        -1.1839   -1.8007    0.0034 H         1 <0>         0.4387
@<TRIPOS>BOND
     1    1    2 1
     2    1   32 1
     3    1   33 1
     4    1   34 1
     5    2    3 1
     6    2   35 1
     7    2   36 1
     8    3    4 1
     9    4    9 ar
    10    4    5 ar
    11    5    6 ar
    12    5   37 1
    13    6    7 ar
    14    6   38 1
    15    7    8 ar
    16    7   10 1
    17    8    9 ar
    18    8   39 1
    19    9   40 1
    20   10   15 ar
    21   10   11 ar
    22   11   12 ar
    23   11   30 1
    24   12   13 ar
    25   12   29 1
    26   13   14 ar
    27   14   15 ar
    28   14   18 1
    29   15   16 1
    30   16   17 3
    31   18   19 1
    32   19   20 1
    33   19   41 1
    34   19   42 1
    35   20   21 2
    36   20   22 1
    37   22   27 ar
    38   22   23 ar
    39   23   24 ar
    40   23   43 1
    41   24   25 ar
    42   24   44 1
    43   25   26 ar
    44   25   28 1
    45   26   27 ar
    46   26   45 1
    47   27   46 1
    48   29   47 1
    49   29   48 1
    50   30   31 3
@<TRIPOS>MOLECULE
ZINC14356934
   57    60     0     0     0
SMALL
USER_CHARGES

@<TRIPOS>ATOM
      1 C1         -2.4683    1.6031    0.6639 C.ar      1 <0>        -0.0893
      2 C2         -3.3280    2.5004    1.2218 C.ar      1 <0>        -0.1133
      3 C3         -4.4817    2.0487    1.8848 C.ar      1 <0>        -0.0245
      4 C4         -5.3865    2.9520    2.4692 C.ar      1 <0>        -0.0992
      5 C5         -6.4947    2.4806    3.1037 C.ar      1 <0>        -0.1026
      6 C6         -6.7482    1.1132    3.1840 C.ar      1 <0>        -0.1008
      7 C7         -5.8931    0.2083    2.6290 C.ar      1 <0>        -0.0389
      8 C8         -4.7396    0.6582    1.9664 C.ar      1 <0>        -0.0283
      9 C9         -3.8313   -0.2492    1.3795 C.ar      1 <0>        -0.0920
     10 C10        -2.7102    0.2353    0.7371 C.ar      1 <0>        -0.1304
     11 S1         -4.1265   -1.9841    1.4660 S.3       1 <0>         0.0424
     12 C11        -2.7157   -2.7135    0.5894 C.3       1 <0>        -0.2161
     13 C12        -2.8459   -4.2149    0.5897 C.2       1 <0>         0.5370
     14 O1         -3.7968   -4.7411    1.1283 O.2       1 <0>        -0.4988
     15 N1         -1.9057   -4.9729   -0.0085 N.am      1 <0>        -0.6706
     16 C13        -1.9747   -6.3680    0.0747 C.ar      1 <0>         0.1236
     17 C14        -0.8092   -7.1185    0.1610 C.ar      1 <0>        -0.0859
     18 C15        -0.8807   -8.4952    0.2428 C.ar      1 <0>        -0.1189
     19 C16        -2.1111   -9.1267    0.2385 C.ar      1 <0>        -0.0313
     20 C17        -3.2731   -8.3825    0.1522 C.ar      1 <0>        -0.6282
     21 C18        -3.2086   -7.0047    0.0768 C.ar      1 <0>        -0.0196
     22 S2         -4.8382   -9.1919    0.1465 S.o2      1 <0>         2.6338
     23 O2         -5.7500   -8.3084   -0.4916 O.2       1 <0>        -0.9733
     24 O3         -4.6092  -10.5155   -0.3170 O.2       1 <0>        -0.9646
     25 N2         -5.3286   -9.3206    1.7230 N.2       1 <0>        -0.9491
     26 C19        -6.4588   -9.8825    2.0047 C.2       1 <0>         0.5799
     27 N3         -7.2858  -10.3966    0.9942 N.pl3     1 <0>        -0.8254
     28 C20        -7.4412  -11.8208    0.9367 C.3       1 <0>         0.1265
     29 C21        -8.5826  -12.4053    1.7854 C.3       1 <0>        -0.1427
     30 C22        -8.6420  -11.7064    3.1670 C.3       1 <0>        -0.1256
     31 C23        -7.2820  -11.4455    3.7517 C.3       1 <0>        -0.1083
     32 C24        -6.9118  -10.0083    3.3741 C.3       1 <0>        -0.1192
     33 Cl1        -6.2280   -1.4914    2.7413 Cl        1 <0>         0.0055
     34 H1         -1.5866    1.9599    0.1525 H         1 <0>         0.1300
     35 H2         -3.1228    3.5586    1.1549 H         1 <0>         0.1346
     36 H3         -5.2031    4.0149    2.4154 H         1 <0>         0.1379
     37 H4         -7.1877    3.1772    3.5520 H         1 <0>         0.1368
     38 H5         -7.6345    0.7650    3.6934 H         1 <0>         0.1380
     39 H6         -2.0129   -0.4551    0.2861 H         1 <0>         0.1259
     40 H7         -2.6993   -2.3505   -0.4382 H         1 <0>         0.1162
     41 H8         -1.7903   -2.4290    1.0901 H         1 <0>         0.1164
     42 H9         -1.1812   -4.5514   -0.4966 H         1 <0>         0.4152
     43 H10         0.1520   -6.6260    0.1637 H         1 <0>         0.1374
     44 H11         0.0253   -9.0793    0.3099 H         1 <0>         0.1415
     45 H12        -2.1643  -10.2035    0.3022 H         1 <0>         0.1428
     46 H13        -4.1168   -6.4236    0.0147 H         1 <0>         0.1564
     47 H14        -7.6103  -12.1033   -0.1024 H         1 <0>         0.0796
     48 H15        -6.5067  -12.2787    1.2610 H         1 <0>         0.0684
     49 H16        -9.5296  -12.2582    1.2661 H         1 <0>         0.0681
     50 H17        -8.4153  -13.4728    1.9283 H         1 <0>         0.0760
     51 H18        -9.1651  -10.7564    3.0576 H         1 <0>         0.0656
     52 H19        -9.2048  -12.3370    3.8553 H         1 <0>         0.0647
     53 H20        -7.3150  -11.5508    4.8361 H         1 <0>         0.0869
     54 H21        -6.5546  -12.1391    3.3298 H         1 <0>         0.0744
     55 H22        -6.1202   -9.6640    4.0397 H         1 <0>         0.1048
     56 H23        -7.7874   -9.3745    3.5147 H         1 <0>         0.1133
     57 H24        -7.7335   -9.8132    0.3616 H         1 <0>         0.4170
@<TRIPOS>BOND
     1    1   10 ar
     2    1    2 ar
     3    1   34 1
     4    2    3 ar
     5    2   35 1
     6    3    8 ar
     7    3    4 ar
     8    4    5 ar
     9    4   36 1
    10    5    6 ar
    11    5   37 1
    12    6    7 ar
    13    6   38 1
    14    7    8 ar
    15    7   33 1
    16    8    9 ar
    17    9   10 ar
    18    9   11 1
    19   10   39 1
    20   11   12 1
    21   12   13 1
    22   12   40 1
    23   12   41 1
    24   13   14 2
    25   13   15 am
    26   15   16 1
    27   15   42 1
    28   16   21 ar
    29   16   17 ar
    30   17   18 ar
    31   17   43 1
    32   18   19 ar
    33   18   44 1
    34   19   20 ar
    35   19   45 1
    36   20   21 ar
    37   20   22 1
    38   21   46 1
    39   22   23 2
    40   22   24 2
    41   22   25 1
    42   25   26 2
    43   26   32 1
    44   26   27 1
    45   27   28 1
    46   27   57 1
    47   28   29 1
    48   28   47 1
    49   28   48 1
    50   29   30 1
    51   29   49 1
    52   29   50 1
    53   30   31 1
    54   30   51 1
    55   30   52 1
    56   31   32 1
    57   31   53 1
    58   31   54 1
    59   32   55 1
    60   32   56 1
@<TRIPOS>MOLECULE
ZINC39914923
   57    60     0     0     0
SMALL
USER_CHARGES

@<TRIPOS>ATOM
      1 C1         -0.7262    1.0443   -0.8166 C.3       1 <0>        -0.1244
      2 C2         -0.5879   -0.4443   -0.6271 C.ar      1 <0>        -0.0459
      3 C3         -1.5080   -1.2999   -1.2035 C.ar      1 <0>        -0.1352
      4 C4         -1.3854   -2.6689   -1.0318 C.ar      1 <0>         0.1467
      5 C5         -0.3284   -3.1821   -0.2745 C.ar      1 <0>        -0.0346
      6 C6          0.5936   -2.3128    0.3018 C.ar      1 <0>        -0.0676
      7 C7          0.4632   -0.9494    0.1187 C.ar      1 <0>        -0.0455
      8 Cl1         1.6171    0.1337    0.8323 Cl        1 <0>        -0.0566
      9 C8         -0.1901   -4.6476   -0.0852 C.2       1 <0>         0.1244
     10 C9          0.0602   -5.3066    1.1232 C.2       1 <0>        -0.1689
     11 C10         0.1067   -6.6527    0.8154 C.2       1 <0>        -0.0571
     12 N1         -0.1121   -6.7423   -0.5300 N.pl3     1 <0>        -0.3304
     13 H1         -0.1372   -7.5692   -1.0364 H         1 <0>         0.4545
     14 N2         -0.2861   -5.5684   -1.0241 N.2       1 <0>        -0.2370
     15 C11         0.3672   -7.4045    2.0481 C.2       1 <0>         0.5996
     16 O1          0.4667   -8.6148    2.1154 O.2       1 <0>        -0.5120
     17 N3          0.4807   -6.5654    3.0934 N.am      1 <0>        -0.5939
     18 C12         0.2995   -5.1926    2.6038 C.3       1 <0>         0.2508
     19 H2          1.1971   -4.6044    2.7946 H         1 <0>         0.1136
     20 C13        -0.8908   -4.5562    3.2741 C.ar      1 <0>        -0.0900
     21 C14        -2.0564   -5.2799    3.4453 C.ar      1 <0>        -0.0792
     22 C15        -3.1484   -4.6967    4.0600 C.ar      1 <0>        -0.1100
     23 C16        -3.0757   -3.3895    4.5039 C.ar      1 <0>        -0.0820
     24 C17        -1.9098   -2.6654    4.3332 C.ar      1 <0>        -0.0869
     25 C18        -0.8152   -3.2513    3.7226 C.ar      1 <0>        -0.0705
     26 Br1        -1.8098   -0.8771    4.9396 Br        1 <0>        -0.0429
     27 C19         0.7405   -6.9542    4.4818 C.3       1 <0>         0.1422
     28 C20         2.2502   -6.9860    4.7285 C.3       1 <0>        -0.1384
     29 C21         2.5215   -7.3921    6.1784 C.3       1 <0>         0.0661
     30 O2          3.9315   -7.4218    6.4089 O.3       1 <0>        -0.3818
     31 C22         4.2952   -7.7917    7.7404 C.3       1 <0>         0.0817
     32 C23         4.4602   -9.3107    7.8206 C.3       1 <0>        -0.1768
     33 C24         5.6150   -7.1148    8.1153 C.3       1 <0>        -0.1510
     34 O3         -2.2900   -3.5104   -1.5974 O.3       1 <0>        -0.4872
     35 H3         -0.1832    1.3487   -1.7114 H         1 <0>         0.0805
     36 H4         -1.7800    1.3003   -0.9264 H         1 <0>         0.0747
     37 H5         -0.3153    1.5607    0.0509 H         1 <0>         0.0782
     38 H6         -2.3236   -0.9005   -1.7881 H         1 <0>         0.1427
     39 H7          1.4120   -2.7037    0.8881 H         1 <0>         0.1387
     40 H8         -2.1137   -6.3010    3.0984 H         1 <0>         0.1230
     41 H9         -4.0588   -5.2623    4.1933 H         1 <0>         0.1341
     42 H10        -3.9292   -2.9337    4.9835 H         1 <0>         0.1349
     43 H11         0.0967   -2.6874    3.5925 H         1 <0>         0.1353
     44 H12         0.2777   -6.2318    5.1541 H         1 <0>         0.0917
     45 H13         0.3212   -7.9432    4.6667 H         1 <0>         0.0940
     46 H14         2.7130   -7.7084    4.0562 H         1 <0>         0.0788
     47 H15         2.6695   -5.9970    4.5436 H         1 <0>         0.0774
     48 H16         2.0586   -6.6697    6.8507 H         1 <0>         0.0517
     49 H17         2.1022   -8.3810    6.3634 H         1 <0>         0.0516
     50 H18         3.5146   -7.4741    8.4318 H         1 <0>         0.0601
     51 H19         5.2408   -9.6284    7.1292 H         1 <0>         0.0643
     52 H20         4.7376   -9.5929    8.8363 H         1 <0>         0.0660
     53 H21         3.5199   -9.7930    7.5535 H         1 <0>         0.0561
     54 H22         5.4974   -6.0327    8.0582 H         1 <0>         0.0615
     55 H23         5.8924   -7.3970    9.1310 H         1 <0>         0.0701
     56 H24         6.3955   -7.4324    7.4240 H         1 <0>         0.0639
     57 H25        -2.0534   -3.8006   -2.4890 H         1 <0>         0.3966
@<TRIPOS>BOND
     1    1    2 1
     2    1   35 1
     3    1   36 1
     4    1   37 1
     5    2    7 ar
     6    2    3 ar
     7    3    4 ar
     8    3   38 1
     9    4    5 ar
    10    4   34 1
    11    5    6 ar
    12    5    9 1
    13    6    7 ar
    14    6   39 1
    15    7    8 1
    16    9   14 2
    17    9   10 1
    18   10   18 1
    19   10   11 2
    20   11   12 1
    21   11   15 1
    22   12   13 1
    23   12   14 1
    24   15   16 2
    25   15   17 am
    26   17   18 1
    27   17   27 1
    28   18   19 1
    29   18   20 1
    30   20   25 ar
    31   20   21 ar
    32   21   22 ar
    33   21   40 1
    34   22   23 ar
    35   22   41 1
    36   23   24 ar
    37   23   42 1
    38   24   25 ar
    39   24   26 1
    40   25   43 1
    41   27   28 1
    42   27   44 1
    43   27   45 1
    44   28   29 1
    45   28   46 1
    46   28   47 1
    47   29   30 1
    48   29   48 1
    49   29   49 1
    50   30   31 1
    51   31   32 1
    52   31   33 1
    53   31   50 1
    54   32   51 1
    55   32   52 1
    56   32   53 1
    57   33   54 1
    58   33   55 1
    59   33   56 1
    60   34   57 1
@<TRIPOS>MOLECULE
ZINC08856112
   79    84     0     0     0
SMALL
USER_CHARGES
4-[2-[4-(1-adamantylcarbonyl)piperazin-1-yl]ethylaminomethylene]-2-(4-fluorophenyl)-5-propyl-pyrazol-3-one
@<TRIPOS>ATOM
      1 C1          1.5092    8.4785    6.1707 C.3       1 <0>        -0.1525
      2 C2          0.3504    9.3514    5.6847 C.3       1 <0>        -0.1280
      3 C3         -0.3048    8.6974    4.4665 C.3       1 <0>        -0.0316
      4 C4         -1.4461    9.5571    3.9879 C.2       1 <0>         0.1425
      5 N1         -1.8296   10.6824    4.5088 N.2       1 <0>        -0.2159
      6 N2         -2.9222   11.2125    3.8232 N.am      1 <0>        -0.3999
      7 C5         -3.2668   10.4015    2.8026 C.2       1 <0>         0.5168
      8 O1         -4.1760   10.5692    2.0071 O.2       1 <0>        -0.4772
      9 C6         -2.3254    9.2756    2.8431 C.3       1 <0>        -0.1444
     10 C7         -2.2794    8.1839    1.9929 C.2       1 <0>         0.2206
     11 N3         -1.3429    7.2300    2.1705 N.2       1 <0>        -0.5361
     12 C8         -1.2942    6.0748    1.2708 C.3       1 <0>         0.0097
     13 C9         -0.1483    5.1510    1.6885 C.3       1 <0>         0.0084
     14 C10         1.1231    3.2077    1.0033 C.3       1 <0>        -0.0112
     15 C11         1.2253    2.1201   -0.0714 C.3       1 <0>         0.0857
     16 N4         -0.0225    1.3415   -0.0684 N.am      1 <0>        -0.6317
     17 C12        -1.2976    2.0701   -0.1505 C.3       1 <0>         0.0567
     18 C13        -1.3005    3.1599    0.9334 C.3       1 <0>        -0.0251
     19 C14         0.0020   -0.0042    0.0021 C.2       1 <0>         0.5338
     20 O2          1.0611   -0.5940   -0.0326 O.2       1 <0>        -0.5033
     21 C15        -1.2867   -0.7758    0.1241 C.3       1 <0>        -0.0701
     22 C16        -2.0300   -0.3312    1.3854 C.3       1 <0>        -0.1091
     23 C17        -3.3383   -1.1147    1.5091 C.3       1 <0>        -0.0850
     24 C18        -3.0303   -2.6107    1.5994 C.3       1 <0>        -0.1132
     25 C19        -2.2870   -3.0553    0.3382 C.3       1 <0>        -0.0879
     26 C20        -0.9787   -2.2718    0.2143 C.3       1 <0>        -0.0890
     27 C21        -3.1600   -2.7875   -0.8895 C.3       1 <0>        -0.1138
     28 C22        -3.4680   -1.2915   -0.9796 C.3       1 <0>        -0.0852
     29 C23        -4.2113   -0.8468    0.2816 C.3       1 <0>        -0.1123
     30 C24        -2.1597   -0.5080   -1.1035 C.3       1 <0>        -0.1145
     31 C25        -3.5678   12.4132    4.1477 C.ar      1 <0>         0.1468
     32 C26        -4.6464   12.8495    3.3897 C.ar      1 <0>        -0.1150
     33 C27        -5.2849   14.0302    3.7146 C.ar      1 <0>        -0.1263
     34 C28        -4.8427   14.7849    4.7882 C.ar      1 <0>         0.0953
     35 C29        -3.7637   14.3544    5.5419 C.ar      1 <0>        -0.1297
     36 C30        -3.1263   13.1712    5.2241 C.ar      1 <0>        -0.0930
     37 F1         -5.4652   15.9425    5.1010 F         1 <0>        -0.1321
     38 H1          1.1317    7.4937    6.4461 H         1 <0>         0.0548
     39 H2          2.2455    8.3755    5.3736 H         1 <0>         0.0539
     40 H3          1.9759    8.9444    7.0385 H         1 <0>         0.0613
     41 H4          0.7279   10.3361    5.4093 H         1 <0>         0.0707
     42 H5         -0.3860    9.4544    6.4817 H         1 <0>         0.0723
     43 H6         -0.6823    7.7126    4.7419 H         1 <0>         0.1025
     44 H7          0.4316    8.5943    3.6695 H         1 <0>         0.0976
     45 H8         -2.9935    8.0962    1.1875 H         1 <0>         0.1397
     46 H9         -1.9359    9.6809    2.0161 H         1 <0>         0.1585
     47 H10        -1.1311    6.4169    0.2488 H         1 <0>         0.0842
     48 H11        -2.2374    5.5314    1.3259 H         1 <0>         0.0872
     49 H12        -0.3115    4.8089    2.7105 H         1 <0>         0.1396
     50 H13         0.7950    5.6945    1.6336 H         1 <0>         0.1375
     51 H14         1.0869    2.7430    1.9886 H         1 <0>         0.1367
     52 H15         1.9922    3.8628    0.9418 H         1 <0>         0.1438
     53 H16         2.0669    1.4640    0.1506 H         1 <0>         0.1362
     54 H17         1.3675    2.5800   -1.0494 H         1 <0>         0.0946
     55 H18        -1.3948    2.5281   -1.1348 H         1 <0>         0.0983
     56 H19        -2.1247    1.3809    0.0192 H         1 <0>         0.1570
     57 H20        -1.3030    2.6959    1.9197 H         1 <0>         0.1389
     58 H21        -2.1895    3.7806    0.8208 H         1 <0>         0.1409
     59 H22        -1.4080   -0.5221    2.2599 H         1 <0>         0.0726
     60 H23        -2.2494    0.7345    1.3211 H         1 <0>         0.0651
     61 H24        -3.8678   -0.7980    2.4078 H         1 <0>         0.0788
     62 H25        -3.9624   -3.1689    1.6876 H         1 <0>         0.0704
     63 H26        -2.4083   -2.8016    2.4740 H         1 <0>         0.0656
     64 H27        -2.0676   -4.1210    0.4024 H         1 <0>         0.0805
     65 H28        -0.4491   -2.5886   -0.6843 H         1 <0>         0.0733
     66 H29        -0.3567   -2.4626    1.0889 H         1 <0>         0.0719
     67 H30        -2.6304   -3.1042   -1.7880 H         1 <0>         0.0664
     68 H31        -4.0921   -3.3457   -0.8013 H         1 <0>         0.0702
     69 H32        -4.0899   -1.1007   -1.8542 H         1 <0>         0.0799
     70 H33        -5.1434   -1.4050    0.3698 H         1 <0>         0.0730
     71 H34        -4.4307    0.2189    0.2173 H         1 <0>         0.0603
     72 H35        -2.3791    0.5577   -1.1677 H         1 <0>         0.0712
     73 H36        -1.6301   -0.8247   -2.0020 H         1 <0>         0.0743
     74 H37        -4.9885   12.2636    2.5494 H         1 <0>         0.1609
     75 H38        -6.1270   14.3673    3.1284 H         1 <0>         0.1478
     76 H39        -3.4206   14.9442    6.3790 H         1 <0>         0.1478
     77 H40        -2.2853   12.8355    5.8126 H         1 <0>         0.1478
     78 N5         -0.0989    4.0042    0.7582 N.4       1 <0>        -0.3941
     79 H41        -0.0780    4.3575   -0.2057 H         1 <0>         0.4266
@<TRIPOS>BOND
     1    1    2 1
     2    1   38 1
     3    1   39 1
     4    1   40 1
     5    2    3 1
     6    2   41 1
     7    2   42 1
     8    3    4 1
     9    3   43 1
    10    3   44 1
    11    4    9 1
    12    4    5 2
    13    5    6 1
    14    6    7 am
    15    6   31 1
    16    7    8 2
    17    7    9 1
    18    9   46 1
    19    9   10 1
    20   10   45 1
    21   10   11 2
    22   11   12 1
    23   12   13 1
    24   12   47 1
    25   12   48 1
    26   13   49 1
    27   13   50 1
    28   13   78 1
    29   14   15 1
    30   14   51 1
    31   14   52 1
    32   14   78 1
    33   15   16 1
    34   15   53 1
    35   15   54 1
    36   16   17 1
    37   16   19 am
    38   17   18 1
    39   17   55 1
    40   17   56 1
    41   18   57 1
    42   18   58 1
    43   18   78 1
    44   19   20 2
    45   19   21 1
    46   21   26 1
    47   21   30 1
    48   21   22 1
    49   22   23 1
    50   22   59 1
    51   22   60 1
    52   23   29 1
    53   23   24 1
    54   23   61 1
    55   24   25 1
    56   24   62 1
    57   24   63 1
    58   25   26 1
    59   25   27 1
    60   25   64 1
    61   26   65 1
    62   26   66 1
    63   27   28 1
    64   27   67 1
    65   27   68 1
    66   28   29 1
    67   28   30 1
    68   28   69 1
    69   29   70 1
    70   29   71 1
    71   30   72 1
    72   30   73 1
    73   31   36 ar
    74   31   32 ar
    75   32   33 ar
    76   32   74 1
    77   33   34 ar
    78   33   75 1
    79   34   35 ar
    80   34   37 1
    81   35   36 ar
    82   35   76 1
    83   36   77 1
    84   78   79 1
@<TRIPOS>MOLECULE
ZINC34695747
   82    86     0     0     0
SMALL
USER_CHARGES

@<TRIPOS>ATOM
      1 C1          3.5095    3.3972    1.7624 C.3       1 <0>        -0.1460
      2 C2          4.5119    2.7711    2.7341 C.3       1 <0>        -0.0710
      3 C3          5.3259    1.6093    2.1287 C.3       1 <0>        -0.1099
      4 H1          6.3245    1.8781    1.7842 H         1 <0>         0.0927
      5 C4          4.4955    0.8450    1.0885 C.3       1 <0>        -0.0867
      6 C5          3.1546    0.4791    1.6772 C.2       1 <0>        -0.0671
      7 C6          2.8465    0.8801    2.8892 C.2       1 <0>        -0.1860
      8 C7          3.9004    1.7000    3.6562 C.3       1 <0>        -0.0769
      9 H2          3.6027    2.0353    4.6497 H         1 <0>         0.0966
     10 C8          5.2716    0.9909    3.5361 C.3       1 <0>        -0.1320
     11 C9          1.5154    0.5434    3.5103 C.3       1 <0>         0.0345
     12 N1          1.6521   -0.6630    4.3373 N.4       1 <0>        -0.3788
     13 C10         2.5597   -0.3875    5.4590 C.3       1 <0>        -0.0177
     14 C11         1.9318    0.6634    6.3768 C.3       1 <0>        -0.1423
     15 C12         2.8772    0.9504    7.5451 C.3       1 <0>        -0.0715
     16 C13         2.2587    1.9854    8.4491 C.ar      1 <0>        -0.0990
     17 C14         2.4936    3.3289    8.2238 C.ar      1 <0>        -0.1150
     18 C15         1.9264    4.2784    9.0530 C.ar      1 <0>        -0.1154
     19 C16         1.1239    3.8844   10.1073 C.ar      1 <0>        -0.1133
     20 C17         0.8882    2.5410   10.3322 C.ar      1 <0>        -0.1150
     21 C18         1.4520    1.5917    9.5004 C.ar      1 <0>        -0.1155
     22 C19         2.1987   -1.7561    3.5222 C.3       1 <0>        -0.0160
     23 C20         1.2168   -2.0948    2.3989 C.3       1 <0>         0.0266
     24 N2          1.8145   -3.1033    1.5136 N.3       1 <0>        -0.5268
     25 C21         1.8876   -4.4109    2.1790 C.3       1 <0>         0.0336
     26 C22         2.6763   -5.3854    1.2977 C.3       1 <0>         0.1172
     27 N3          2.0676   -5.4020   -0.0411 N.am      1 <0>        -0.6122
     28 C23         1.8355   -4.1160   -0.7160 C.3       1 <0>         0.0986
     29 C24         1.0799   -3.1915    0.2445 C.3       1 <0>         0.0401
     30 C25         1.7317   -6.5649   -0.6339 C.2       1 <0>         0.5671
     31 O1          1.8361   -7.6107   -0.0233 O.2       1 <0>        -0.5111
     32 C26         1.2364   -6.5684   -2.0269 C.ar      1 <0>        -0.1346
     33 C27         1.7622   -5.6733   -2.9602 C.ar      1 <0>        -0.0479
     34 C28         1.2960   -5.6821   -4.2583 C.ar      1 <0>        -0.1184
     35 C29         0.3090   -6.5755   -4.6362 C.ar      1 <0>        -0.0291
     36 C30        -0.2166   -7.4648   -3.7162 C.ar      1 <0>        -0.0497
     37 C31         0.2453   -7.4706   -2.4160 C.ar      1 <0>        -0.0027
     38 N4         -1.2724   -8.4165   -4.1290 N.pl3     1 <0>         0.0281
     39 O2         -1.6745   -8.4160   -5.2691 O.2       1 <0>        -0.1434
     40 O3         -1.7327   -9.1944   -3.3260 O.3       1 <0>        -0.1475
     41 C32         5.3616    3.8094    3.4694 C.3       1 <0>        -0.1344
     42 H3          2.7079    3.8754    2.3253 H         1 <0>         0.0559
     43 H4          4.0157    4.1414    1.1476 H         1 <0>         0.0601
     44 H5          3.0907    2.6209    1.1220 H         1 <0>         0.0624
     45 H6          4.3468    1.4734    0.2103 H         1 <0>         0.0960
     46 H7          5.0242   -0.0630    0.7984 H         1 <0>         0.0911
     47 H8          2.4524   -0.1088    1.1048 H         1 <0>         0.1249
     48 H9          5.2078   -0.0973    3.5382 H         1 <0>         0.0668
     49 H10         6.0296    1.3770    4.2177 H         1 <0>         0.0965
     50 H11         1.1840    1.3748    4.1325 H         1 <0>         0.1380
     51 H12         0.7825    0.3636    2.7238 H         1 <0>         0.1303
     52 H13         2.7312   -1.3052    6.0215 H         1 <0>         0.1295
     53 H14         3.5090   -0.0139    5.0750 H         1 <0>         0.1388
     54 H15         1.7603    1.5812    5.8144 H         1 <0>         0.0888
     55 H16         0.9826    0.2899    6.7609 H         1 <0>         0.0879
     56 H17         3.0487    0.0326    8.1076 H         1 <0>         0.0826
     57 H18         3.8264    1.3239    7.1611 H         1 <0>         0.0824
     58 H19         3.1206    3.6367    7.4000 H         1 <0>         0.1204
     59 H20         2.1105    5.3280    8.8773 H         1 <0>         0.1255
     60 H21         0.6812    4.6262   10.7556 H         1 <0>         0.1261
     61 H22         0.2615    2.2331   11.1561 H         1 <0>         0.1258
     62 H23         1.2649    0.5422    9.6738 H         1 <0>         0.1211
     63 H24         3.1510   -1.4469    3.0914 H         1 <0>         0.1439
     64 H25         2.3515   -2.6350    4.1485 H         1 <0>         0.1290
     65 H26         0.2954   -2.4884    2.8281 H         1 <0>         0.0614
     66 H27         0.9951   -1.1942    1.8262 H         1 <0>         0.0960
     67 H28         2.3894   -4.3022    3.1405 H         1 <0>         0.0907
     68 H29         0.8800   -4.7961    2.3357 H         1 <0>         0.0516
     69 H30         3.7128   -5.0561    1.2246 H         1 <0>         0.0836
     70 H31         2.6363   -6.3849    1.7306 H         1 <0>         0.1055
     71 H32         2.7912   -3.6647   -0.9827 H         1 <0>         0.0884
     72 H33         1.2397   -4.2763   -1.6146 H         1 <0>         0.1021
     73 H34         0.0836   -3.5937    0.4281 H         1 <0>         0.0507
     74 H35         0.9961   -2.1984   -0.1970 H         1 <0>         0.0959
     75 H36         2.5320   -4.9751   -2.6663 H         1 <0>         0.1520
     76 H37         1.7019   -4.9901   -4.9813 H         1 <0>         0.1590
     77 H38        -0.0528   -6.5781   -5.6538 H         1 <0>         0.1631
     78 H39        -0.1627   -8.1685   -1.6998 H         1 <0>         0.1632
     79 H40         4.7363    4.3575    4.1742 H         1 <0>         0.0615
     80 H41         6.1631    3.3060    4.0101 H         1 <0>         0.0616
     81 H42         5.7909    4.5045    2.7478 H         1 <0>         0.0657
     82 H43         0.7471   -0.9301    4.6947 H         1 <0>         0.4224
@<TRIPOS>BOND
     1    1    2 1
     2    1   42 1
     3    1   43 1
     4    1   44 1
     5    2    8 1
     6    2    3 1
     7    2   41 1
     8    3    4 1
     9    3   10 1
    10    3    5 1
    11    5    6 1
    12    5   45 1
    13    5   46 1
    14    6    7 2
    15    6   47 1
    16    7    8 1
    17    7   11 1
    18    8    9 1
    19    8   10 1
    20   10   48 1
    21   10   49 1
    22   11   12 1
    23   11   50 1
    24   11   51 1
    25   12   13 1
    26   12   22 1
    27   12   82 1
    28   13   14 1
    29   13   52 1
    30   13   53 1
    31   14   15 1
    32   14   54 1
    33   14   55 1
    34   15   16 1
    35   15   56 1
    36   15   57 1
    37   16   21 ar
    38   16   17 ar
    39   17   18 ar
    40   17   58 1
    41   18   19 ar
    42   18   59 1
    43   19   20 ar
    44   19   60 1
    45   20   21 ar
    46   20   61 1
    47   21   62 1
    48   22   23 1
    49   22   63 1
    50   22   64 1
    51   23   24 1
    52   23   65 1
    53   23   66 1
    54   24   29 1
    55   24   25 1
    56   25   26 1
    57   25   67 1
    58   25   68 1
    59   26   27 1
    60   26   69 1
    61   26   70 1
    62   27   28 1
    63   27   30 am
    64   28   29 1
    65   28   71 1
    66   28   72 1
    67   29   73 1
    68   29   74 1
    69   30   31 2
    70   30   32 1
    71   32   37 ar
    72   32   33 ar
    73   33   34 ar
    74   33   75 1
    75   34   35 ar
    76   34   76 1
    77   35   36 ar
    78   35   77 1
    79   36   37 ar
    80   36   38 1
    81   37   78 1
    82   38   39 2
    83   38   40 1
    84   41   79 1
    85   41   80 1
    86   41   81 1
@<TRIPOS>MOLECULE
ZINC35841765
   64    67     0     0     0
SMALL
USER_CHARGES

@<TRIPOS>ATOM
      1 C1         -0.0384    0.8966    2.0739 C.3       1 <0>         0.0223
      2 O1         -0.1640    0.1723    0.8485 O.3       1 <0>        -0.2993
      3 C2         -1.3274   -0.5047    0.6475 C.ar      1 <0>         0.1223
      4 C3         -2.3259   -0.4662    1.6071 C.ar      1 <0>        -0.1663
      5 C4         -3.5079   -1.1532    1.4046 C.ar      1 <0>        -0.1108
      6 C5         -3.6972   -1.8835    0.2388 C.ar      1 <0>         0.1160
      7 C6         -2.6986   -1.9241   -0.7247 C.ar      1 <0>        -0.1569
      8 C7         -1.5162   -1.2309   -0.5242 C.ar      1 <0>         0.1139
      9 O2         -0.5387   -1.2647   -1.4690 O.3       1 <0>        -0.2981
     10 C8         -0.8011   -2.0301   -2.6469 C.3       1 <0>         0.0224
     11 N1         -4.8943   -2.5788    0.0354 N.pl3     1 <0>        -0.9394
     12 C9         -6.0069   -1.9325   -0.6652 C.3       1 <0>         0.1371
     13 C10        -5.5745   -1.5707   -2.0890 C.3       1 <0>        -0.1618
     14 C11        -6.7135   -0.8256   -2.7883 C.3       1 <0>        -0.0035
     15 N2         -7.0302    0.4000   -2.0451 N.4       1 <0>        -0.3871
     16 C12        -7.5140    0.0573   -0.7024 C.3       1 <0>        -0.0094
     17 C13        -6.4059   -0.6539    0.0772 C.3       1 <0>        -0.1625
     18 C14        -8.0698    1.1506   -2.7618 C.3       1 <0>         0.0471
     19 C15        -8.3087    2.4663   -2.0669 C.ar      1 <0>        -0.2085
     20 C16        -9.3867    2.6114   -1.2140 C.ar      1 <0>        -0.0330
     21 C17        -9.6068    3.8171   -0.5757 C.ar      1 <0>        -0.1586
     22 C18        -8.7475    4.8818   -0.7904 C.ar      1 <0>         0.1723
     23 C19        -7.6678    4.7377   -1.6441 C.ar      1 <0>        -0.1879
     24 C20        -7.4450    3.5275   -2.2786 C.ar      1 <0>         0.1548
     25 F1         -6.3883    3.3837   -3.1079 F         1 <0>        -0.1227
     26 F2         -8.9633    6.0608   -0.1669 F         1 <0>        -0.1120
     27 S1         -5.0535   -4.1323    0.5866 S.o2      1 <0>         2.6831
     28 O3         -6.1001   -4.7261   -0.1692 O.2       1 <0>        -0.9440
     29 O4         -3.7439   -4.6815    0.6369 O.2       1 <0>        -0.9264
     30 C21        -5.6246   -4.0386    2.2508 C.ar      1 <0>        -0.6974
     31 C22        -4.7156   -3.9747    3.2904 C.ar      1 <0>         0.0146
     32 C23        -5.1624   -3.9008    4.5961 C.ar      1 <0>        -0.1709
     33 C24        -6.5211   -3.8907    4.8628 C.ar      1 <0>         0.1665
     34 C25        -7.4305   -3.9548    3.8207 C.ar      1 <0>        -0.1738
     35 C26        -6.9814   -4.0234    2.5156 C.ar      1 <0>         0.0061
     36 F3         -6.9590   -3.8189    6.1388 F         1 <0>        -0.1224
     37 H1          0.9335    1.3891    2.1068 H         1 <0>         0.1078
     38 H2         -0.8276    1.6459    2.1357 H         1 <0>         0.0574
     39 H3         -0.1250    0.2075    2.9139 H         1 <0>         0.0603
     40 H4         -2.1803    0.1010    2.5146 H         1 <0>         0.1454
     41 H5         -4.2850   -1.1222    2.1539 H         1 <0>         0.1332
     42 H6         -2.8451   -2.4922   -1.6315 H         1 <0>         0.1418
     43 H7         -1.6817   -1.6314   -3.1506 H         1 <0>         0.0529
     44 H8          0.0573   -1.9729   -3.3161 H         1 <0>         0.1080
     45 H9         -0.9791   -3.0698   -2.3723 H         1 <0>         0.0610
     46 H10        -6.8579   -2.6126   -0.7031 H         1 <0>         0.1248
     47 H11        -4.6918   -0.9324   -2.0502 H         1 <0>         0.0993
     48 H12        -5.3420   -2.4812   -2.6413 H         1 <0>         0.1223
     49 H13        -6.4090   -0.5666   -3.8023 H         1 <0>         0.1387
     50 H14        -7.5955   -1.4648   -2.8268 H         1 <0>         0.1381
     51 H15        -7.8006    0.9680   -0.1765 H         1 <0>         0.1342
     52 H16        -8.3790   -0.6008   -0.7853 H         1 <0>         0.1369
     53 H17        -6.7677   -0.9091    1.0732 H         1 <0>         0.1195
     54 H18        -5.5404    0.0034    0.1609 H         1 <0>         0.1008
     55 H19        -7.7446    1.3344   -3.7858 H         1 <0>         0.1428
     56 H20        -8.9936    0.5722   -2.7723 H         1 <0>         0.1473
     57 H21       -10.0578    1.7819   -1.0466 H         1 <0>         0.1561
     58 H22       -10.4494    3.9294    0.0905 H         1 <0>         0.1586
     59 H23        -6.9971    5.5674   -1.8120 H         1 <0>         0.1629
     60 H24        -3.6559   -3.9829    3.0822 H         1 <0>         0.1516
     61 H25        -4.4521   -3.8512    5.4081 H         1 <0>         0.1512
     62 H26        -8.4905   -3.9474    4.0276 H         1 <0>         0.1499
     63 H27        -7.6906   -4.0689    1.7023 H         1 <0>         0.1487
     64 H28        -6.2005    0.9689   -1.9675 H         1 <0>         0.4231
@<TRIPOS>BOND
     1    1    2 1
     2    1   37 1
     3    1   38 1
     4    1   39 1
     5    2    3 1
     6    3    8 ar
     7    3    4 ar
     8    4    5 ar
     9    4   40 1
    10    5    6 ar
    11    5   41 1
    12    6    7 ar
    13    6   11 1
    14    7    8 ar
    15    7   42 1
    16    8    9 1
    17    9   10 1
    18   10   43 1
    19   10   44 1
    20   10   45 1
    21   11   12 1
    22   11   27 1
    23   12   17 1
    24   12   13 1
    25   12   46 1
    26   13   14 1
    27   13   47 1
    28   13   48 1
    29   14   15 1
    30   14   49 1
    31   14   50 1
    32   15   16 1
    33   15   18 1
    34   15   64 1
    35   16   17 1
    36   16   51 1
    37   16   52 1
    38   17   53 1
    39   17   54 1
    40   18   19 1
    41   18   55 1
    42   18   56 1
    43   19   24 ar
    44   19   20 ar
    45   20   21 ar
    46   20   57 1
    47   21   22 ar
    48   21   58 1
    49   22   23 ar
    50   22   26 1
    51   23   24 ar
    52   23   59 1
    53   24   25 1
    54   27   28 2
    55   27   29 2
    56   27   30 1
    57   30   35 ar
    58   30   31 ar
    59   31   32 ar
    60   31   60 1
    61   32   33 ar
    62   32   61 1
    63   33   34 ar
    64   33   36 1
    65   34   35 ar
    66   34   62 1
    67   35   63 1
@<TRIPOS>MOLECULE
ZINC36660380
   70    73     0     0     0
SMALL
USER_CHARGES

@<TRIPOS>ATOM
      1 C1         -2.5867    0.9058    0.4371 C.3       1 <0>        -0.1876
      2 C2         -2.4361   -0.5867    0.7379 C.3       1 <0>        -0.0212
      3 N1         -1.6715   -1.2287   -0.3397 N.4       1 <0>        -0.3820
      4 C3         -0.3029   -0.6951   -0.3541 C.3       1 <0>        -0.0153
      5 C4          0.4518   -1.2593   -1.5595 C.3       1 <0>        -0.1978
      6 C5         -1.6291   -2.6794   -0.1129 C.3       1 <0>        -0.0545
      7 C6         -3.0380   -3.2591   -0.2539 C.3       1 <0>         0.0795
      8 N2         -2.9782   -4.7191   -0.1486 N.am      1 <0>        -0.5029
      9 C7         -3.1385   -5.3319    1.0835 C.2       1 <0>         0.3407
     10 N3         -3.1119   -6.6111    1.3765 N.2       1 <0>        -0.4767
     11 C8         -3.2850   -7.0715    2.6342 C.ar      1 <0>         0.0925
     12 C9         -3.2797   -8.4132    3.0814 C.ar      1 <0>        -0.0212
     13 C10        -3.4729   -8.7108    4.4050 C.ar      1 <0>        -0.0727
     14 C11        -3.6793   -7.7154    5.3494 C.ar      1 <0>        -0.0800
     15 C12        -3.6906   -6.3924    4.9474 C.ar      1 <0>        -0.0693
     16 C13        -3.4980   -6.0848    3.6237 C.ar      1 <0>        -0.1339
     17 S1         -3.4262   -4.5812    2.6798 S.3       1 <0>        -0.0122
     18 C14        -3.4614  -10.1521    4.8449 C.3       1 <0>        -0.1249
     19 C15        -3.0598   -9.5279    2.0914 C.3       1 <0>        -0.1199
     20 C16        -2.7672   -5.4661   -1.2504 C.2       1 <0>         0.4800
     21 O1         -2.8088   -6.6760   -1.1797 O.2       1 <0>        -0.4190
     22 C17        -2.4798   -4.7979   -2.5702 C.3       1 <0>         0.1436
     23 H1         -1.9583   -3.8555   -2.4025 H         1 <0>         0.0947
     24 C18        -3.8000   -4.5398   -3.3264 C.3       1 <0>        -0.1227
     25 C19        -3.4195   -4.8360   -4.8011 C.3       1 <0>        -0.1238
     26 C20        -2.4174   -6.0055   -4.6348 C.3       1 <0>         0.1068
     27 N4         -1.6578   -5.6817   -3.4096 N.pl3     1 <0>        -0.9925
     28 S2         -0.1364   -6.2221   -3.0413 S.o2      1 <0>         2.7075
     29 O2          0.5285   -6.4380   -4.2784 O.2       1 <0>        -0.9349
     30 O3          0.3746   -5.3482   -2.0441 O.2       1 <0>        -0.9630
     31 C21        -0.3143   -7.8025   -2.2827 C.ar      1 <0>        -0.6896
     32 C22        -0.3193   -7.9104   -0.9045 C.ar      1 <0>         0.0385
     33 C23        -0.4592   -9.1494   -0.3084 C.ar      1 <0>        -0.1650
     34 C24        -0.5944  -10.2828   -1.0921 C.ar      1 <0>         0.1667
     35 C25        -0.5893  -10.1734   -2.4723 C.ar      1 <0>        -0.1731
     36 C26        -0.4545   -8.9328   -3.0662 C.ar      1 <0>         0.0136
     37 F1         -0.7308  -11.4945   -0.5105 F         1 <0>        -0.1255
     38 H2         -3.1541    1.3822    1.2366 H         1 <0>         0.1086
     39 H3         -1.6001    1.3641    0.3688 H         1 <0>         0.0828
     40 H4         -3.1134    1.0346   -0.5086 H         1 <0>         0.0823
     41 H5         -1.9095   -0.7154    1.6835 H         1 <0>         0.1349
     42 H6         -3.4227   -1.0450    0.8061 H         1 <0>         0.1304
     43 H7         -0.3376    0.3921   -0.4235 H         1 <0>         0.1384
     44 H8          0.2095   -0.9844    0.5634 H         1 <0>         0.1323
     45 H9         -0.0334   -0.9304   -2.4784 H         1 <0>         0.0823
     46 H10         1.4812   -0.9011   -1.5438 H         1 <0>         0.1102
     47 H11         0.4453   -2.3484   -1.5149 H         1 <0>         0.0871
     48 H12        -0.9704   -3.1429   -0.8473 H         1 <0>         0.1515
     49 H13        -1.2527   -2.8795    0.8903 H         1 <0>         0.1454
     50 H14        -3.6746   -2.8635    0.5375 H         1 <0>         0.1188
     51 H15        -3.4497   -2.9814   -1.2242 H         1 <0>         0.1226
     52 H16        -3.8299   -7.9714    6.3877 H         1 <0>         0.1450
     53 H17        -3.8503   -5.6062    5.6704 H         1 <0>         0.1375
     54 H18        -2.4545  -10.4285    5.1574 H         1 <0>         0.0792
     55 H19        -4.1498  -10.2826    5.6799 H         1 <0>         0.0750
     56 H20        -3.7717  -10.7876    4.0154 H         1 <0>         0.0767
     57 H21        -2.0073   -9.8111    2.0910 H         1 <0>         0.0735
     58 H22        -3.6675  -10.3881    2.3719 H         1 <0>         0.0768
     59 H23        -3.3457   -9.1905    1.0951 H         1 <0>         0.0785
     60 H24        -4.5795   -5.2209   -2.9850 H         1 <0>         0.0926
     61 H25        -4.1147   -3.5027   -3.2101 H         1 <0>         0.0944
     62 H26        -4.2923   -5.1479   -5.3747 H         1 <0>         0.0993
     63 H27        -2.9393   -3.9726   -5.2616 H         1 <0>         0.0872
     64 H28        -2.9512   -6.9481   -4.5137 H         1 <0>         0.0811
     65 H29        -1.7471   -6.0557   -5.4929 H         1 <0>         0.0997
     66 H30        -0.2134   -7.0262   -0.2934 H         1 <0>         0.1338
     67 H31        -0.4627   -9.2335    0.7683 H         1 <0>         0.1413
     68 H32        -0.6944  -11.0568   -3.0846 H         1 <0>         0.1486
     69 H33        -0.4549   -8.8467   -4.1427 H         1 <0>         0.1464
     70 H34        -2.1155   -1.0397   -1.2259 H         1 <0>         0.4227
@<TRIPOS>BOND
     1    1    2 1
     2    1   38 1
     3    1   39 1
     4    1   40 1
     5    2    3 1
     6    2   41 1
     7    2   42 1
     8    3    4 1
     9    3    6 1
    10    3   70 1
    11    4    5 1
    12    4   43 1
    13    4   44 1
    14    5   45 1
    15    5   46 1
    16    5   47 1
    17    6    7 1
    18    6   48 1
    19    6   49 1
    20    7    8 1
    21    7   50 1
    22    7   51 1
    23    8    9 1
    24    8   20 am
    25    9   17 1
    26    9   10 2
    27   10   11 1
    28   11   16 ar
    29   11   12 ar
    30   12   13 ar
    31   12   19 1
    32   13   14 ar
    33   13   18 1
    34   14   15 ar
    35   14   52 1
    36   15   16 ar
    37   15   53 1
    38   16   17 1
    39   18   54 1
    40   18   55 1
    41   18   56 1
    42   19   57 1
    43   19   58 1
    44   19   59 1
    45   20   21 2
    46   20   22 1
    47   22   23 1
    48   22   27 1
    49   22   24 1
    50   24   25 1
    51   24   60 1
    52   24   61 1
    53   25   26 1
    54   25   62 1
    55   25   63 1
    56   26   27 1
    57   26   64 1
    58   26   65 1
    59   27   28 1
    60   28   29 2
    61   28   30 2
    62   28   31 1
    63   31   36 ar
    64   31   32 ar
    65   32   33 ar
    66   32   66 1
    67   33   34 ar
    68   33   67 1
    69   34   35 ar
    70   34   37 1
    71   35   36 ar
    72   35   68 1
    73   36   69 1
@<TRIPOS>MOLECULE
ZINC40427324
   70    74     0     0     0
SMALL
USER_CHARGES

@<TRIPOS>ATOM
      1 C1         -1.6365   -0.6334   -0.0593 C.3       1 <0>        -0.1300
      2 C2         -1.1840   -2.0706   -0.0856 C.ar      1 <0>        -0.0216
      3 C3         -0.9657   -2.7044   -1.2946 C.ar      1 <0>        -0.1398
      4 C4         -0.5507   -4.0228   -1.3188 C.ar      1 <0>        -0.0164
      5 C5         -0.3534   -4.7071   -0.1340 C.ar      1 <0>        -0.6881
      6 C6         -0.5708   -4.0730    1.0749 C.ar      1 <0>        -0.0183
      7 C7         -0.9817   -2.7534    1.0992 C.ar      1 <0>        -0.1410
      8 S1          0.1746   -6.3879   -0.1649 S.o2      1 <0>         2.6878
      9 O1         -0.2395   -6.9663    1.0652 O.2       1 <0>        -0.9461
     10 O2         -0.2190   -6.9141   -1.4248 O.2       1 <0>        -0.9437
     11 N1          1.8305   -6.3813   -0.1512 N.pl3     1 <0>        -0.9996
     12 C8          2.5888   -6.3456   -1.4096 C.3       1 <0>         0.1041
     13 C9          3.5462   -5.1481   -1.3710 C.3       1 <0>         0.0928
     14 N2          4.2838   -5.1772   -0.1002 N.am      1 <0>        -0.5796
     15 C10         3.5255   -5.2129    1.1582 C.3       1 <0>         0.0748
     16 C11         2.5681   -6.4048    1.1198 C.3       1 <0>         0.1037
     17 C12         5.6315   -5.1718   -0.0890 C.2       1 <0>         0.5114
     18 O3          6.2469   -5.2406   -1.1319 O.2       1 <0>        -0.5219
     19 C13         6.3739   -5.0803    1.2193 C.3       1 <0>        -0.0053
     20 H1          5.9608   -5.8033    1.9227 H         1 <0>         0.1629
     21 C14         6.2257   -3.6694    1.7922 C.3       1 <0>        -0.1803
     22 N3          7.7964   -5.3715    0.9966 N.4       1 <0>        -0.3656
     23 C15         8.3838   -4.3080    0.1706 C.3       1 <0>        -0.0152
     24 C16         9.7608   -4.7733   -0.3338 C.3       1 <0>        -0.0566
     25 C17        10.5013   -5.3371    0.8347 C.2       1 <0>        -0.1868
     26 C18         9.9715   -5.6634    2.0474 C.2       1 <0>        -0.1441
     27 C19        10.8559   -6.1713    2.9956 C.2       1 <0>        -0.1472
     28 C20        12.1657   -6.3209    2.6880 C.2       1 <0>        -0.1540
     29 S2         12.2173   -5.7368    0.9997 S.3       1 <0>         0.1445
     30 C21         8.4792   -5.4629    2.2926 C.3       1 <0>         0.1480
     31 H2          8.3217   -4.5423    2.8545 H         1 <0>         0.1531
     32 C22         7.9332   -6.6327    3.0701 C.ar      1 <0>        -0.1343
     33 C23         7.4309   -7.7334    2.4010 C.ar      1 <0>        -0.1241
     34 C24         6.9302   -8.8063    3.1141 C.ar      1 <0>        -0.1040
     35 C25         6.9319   -8.7790    4.4964 C.ar      1 <0>        -0.0873
     36 C26         7.4349   -7.6790    5.1652 C.ar      1 <0>        -0.1030
     37 C27         7.9398   -6.6076    4.4520 C.ar      1 <0>        -0.0496
     38 C28         8.4930   -5.4105    5.1812 C.3       1 <0>        -0.1394
     39 H3         -0.7654    0.0216   -0.0425 H         1 <0>         0.0811
     40 H4         -2.2318   -0.4235   -0.9479 H         1 <0>         0.0765
     41 H5         -2.2396   -0.4587    0.8317 H         1 <0>         0.0760
     42 H6         -1.1199   -2.1697   -2.2202 H         1 <0>         0.1354
     43 H7         -0.3808   -4.5182   -2.2633 H         1 <0>         0.1400
     44 H8         -0.4170   -4.6078    2.0005 H         1 <0>         0.1390
     45 H9         -1.1480   -2.2569    2.0437 H         1 <0>         0.1347
     46 H10         3.1602   -7.2674   -1.5186 H         1 <0>         0.0870
     47 H11         1.9010   -6.2372   -2.2482 H         1 <0>         0.1140
     48 H12         4.2477   -5.2136   -2.2027 H         1 <0>         0.1161
     49 H13         2.9764   -4.2216   -1.4420 H         1 <0>         0.0897
     50 H14         4.2133   -5.3213    1.9968 H         1 <0>         0.0982
     51 H15         2.9542   -4.2911    1.2672 H         1 <0>         0.0964
     52 H16         1.8666   -6.3355    1.9512 H         1 <0>         0.1144
     53 H17         3.1379   -7.3309    1.1950 H         1 <0>         0.0859
     54 H18         5.1796   -3.4845    2.0367 H         1 <0>         0.1124
     55 H19         6.8312   -3.5779    2.6938 H         1 <0>         0.0961
     56 H20         6.5606   -2.9406    1.0541 H         1 <0>         0.0943
     57 H21         7.7330   -4.1046   -0.6798 H         1 <0>         0.1642
     58 H22         8.5003   -3.4039    0.7681 H         1 <0>         0.1320
     59 H23         9.6351   -5.5408   -1.0975 H         1 <0>         0.1134
     60 H24        10.3095   -3.9264   -0.7459 H         1 <0>         0.1305
     61 H25        10.4968   -6.4457    3.9765 H         1 <0>         0.1439
     62 H26        12.9705   -6.6955    3.3032 H         1 <0>         0.1990
     63 H27         7.4295   -7.7548    1.3212 H         1 <0>         0.1119
     64 H28         6.5371   -9.6659    2.5914 H         1 <0>         0.1358
     65 H29         6.5400   -9.6171    5.0535 H         1 <0>         0.1376
     66 H30         7.4360   -7.6576    6.2450 H         1 <0>         0.1383
     67 H31         7.6943   -4.6890    5.3536 H         1 <0>         0.0830
     68 H32         8.9087   -5.7278    6.1376 H         1 <0>         0.0849
     69 H33         9.2762   -4.9488    4.5800 H         1 <0>         0.0725
     70 H34         7.8830   -6.2527    0.5128 H         1 <0>         0.4255
@<TRIPOS>BOND
     1    1    2 1
     2    1   39 1
     3    1   40 1
     4    1   41 1
     5    2    7 ar
     6    2    3 ar
     7    3    4 ar
     8    3   42 1
     9    4    5 ar
    10    4   43 1
    11    5    6 ar
    12    5    8 1
    13    6    7 ar
    14    6   44 1
    15    7   45 1
    16    8    9 2
    17    8   10 2
    18    8   11 1
    19   11   16 1
    20   11   12 1
    21   12   13 1
    22   12   46 1
    23   12   47 1
    24   13   14 1
    25   13   48 1
    26   13   49 1
    27   14   15 1
    28   14   17 am
    29   15   16 1
    30   15   50 1
    31   15   51 1
    32   16   52 1
    33   16   53 1
    34   17   18 2
    35   17   19 1
    36   19   20 1
    37   19   21 1
    38   19   22 1
    39   21   54 1
    40   21   55 1
    41   21   56 1
    42   22   30 1
    43   22   23 1
    44   22   70 1
    45   23   24 1
    46   23   57 1
    47   23   58 1
    48   24   25 1
    49   24   59 1
    50   24   60 1
    51   25   29 1
    52   25   26 2
    53   26   27 1
    54   26   30 1
    55   27   28 2
    56   27   61 1
    57   28   29 1
    58   28   62 1
    59   30   31 1
    60   30   32 1
    61   32   37 ar
    62   32   33 ar
    63   33   34 ar
    64   33   63 1
    65   34   35 ar
    66   34   64 1
    67   35   36 ar
    68   35   65 1
    69   36   37 ar
    70   36   66 1
    71   37   38 1
    72   38   67 1
    73   38   68 1
    74   38   69 1
@<TRIPOS>MOLECULE
ZINC06155179
   48    51     0     0     0
SMALL
USER_CHARGES
N-[3-[2-(5-bromo-3-hydroxy-2-oxo-indolin-3-yl)acetyl]phenyl]benzenesulfonamide
@<TRIPOS>ATOM
      1 C1          5.4783    8.6334    0.0766 C.ar      1 <0>        -0.0586
      2 C2          4.1143    8.5885    0.2965 C.ar      1 <0>        -0.1389
      3 C3          3.4484    7.3776    0.2636 C.ar      1 <0>        -0.0177
      4 C4          4.1474    6.2109    0.0159 C.ar      1 <0>        -0.6771
      5 C5          5.5123    6.2552   -0.1984 C.ar      1 <0>        -0.0182
      6 C6          6.1781    7.4662   -0.1659 C.ar      1 <0>        -0.1384
      7 S1          3.2986    4.6674   -0.0260 S.o2      1 <0>         2.6886
      8 O1          4.2322    3.6792    0.3875 O.2       1 <0>        -0.9492
      9 O2          2.0578    4.8681    0.6369 O.2       1 <0>        -0.9463
     10 N1          2.9419    4.3477   -1.6113 N.pl3     1 <0>        -1.0632
     11 C7          2.0976    5.2032   -2.3236 C.ar      1 <0>         0.1115
     12 C8          0.7255    5.1706   -2.0997 C.ar      1 <0>        -0.0704
     13 C9         -0.1148    6.0184   -2.7971 C.ar      1 <0>        -0.1198
     14 C10         0.4002    6.8957   -3.7290 C.ar      1 <0>        -0.0650
     15 C11         1.7778    6.9334   -3.9667 C.ar      1 <0>        -0.1615
     16 C12         2.6271    6.0798   -3.2570 C.ar      1 <0>        -0.0500
     17 C13         2.3309    7.8676   -4.9604 C.2       1 <0>         0.3868
     18 O3          3.5257    7.8979   -5.1648 O.2       1 <0>        -0.4158
     19 C14         1.4124    8.7865   -5.7239 C.3       1 <0>        -0.1721
     20 C15         2.2351    9.6469   -6.6850 C.3       1 <0>         0.1653
     21 C16         1.3283   10.5105   -7.5312 C.ar      1 <0>        -0.1370
     22 C17         0.4217   11.4996   -7.2223 C.ar      1 <0>        -0.0123
     23 C18        -0.2822   12.1313   -8.2337 C.ar      1 <0>        -0.1202
     24 C19        -0.0708   11.7650   -9.5513 C.ar      1 <0>        -0.0410
     25 C20         0.8370   10.7743   -9.8626 C.ar      1 <0>        -0.1363
     26 C21         1.5490   10.1342   -8.8499 C.ar      1 <0>         0.1767
     27 N2          2.5056    9.1196   -8.9084 N.am      1 <0>        -0.6597
     28 C22         2.9576    8.7759   -7.6906 C.2       1 <0>         0.5036
     29 O4          3.7879    7.9270   -7.4434 O.2       1 <0>        -0.4516
     30 Br1        -1.5282   13.4909   -7.8156 Br        1 <0>        -0.0354
     31 O5          3.1663   10.4534   -5.9608 O.3       1 <0>        -0.5246
     32 H1          5.9978    9.5800    0.0979 H         1 <0>         0.1327
     33 H2          3.5682    9.5000    0.4897 H         1 <0>         0.1342
     34 H3          2.3820    7.3430    0.4310 H         1 <0>         0.1405
     35 H4          6.0584    5.3437   -0.3915 H         1 <0>         0.1390
     36 H5          7.2444    7.5008   -0.3337 H         1 <0>         0.1347
     37 H6          3.3192    3.5665   -2.0453 H         1 <0>         0.4281
     38 H7          0.3150    4.4830   -1.3751 H         1 <0>         0.1431
     39 H8         -1.1789    5.9908   -2.6149 H         1 <0>         0.1411
     40 H9         -0.2604    7.5529   -4.2750 H         1 <0>         0.1374
     41 H10         3.6921    6.1037   -3.4351 H         1 <0>         0.1418
     42 H11         0.7538    8.2427   -6.2440 H         1 <0>         0.1046
     43 H12         0.8797    9.4309   -5.0246 H         1 <0>         0.1273
     44 H13         0.2601   11.7826   -6.1927 H         1 <0>         0.1430
     45 H14        -0.6198   12.2576  -10.3403 H         1 <0>         0.1459
     46 H15         0.9964   10.4940  -10.8933 H         1 <0>         0.1417
     47 H16         2.8093    8.7097   -9.7334 H         1 <0>         0.4183
     48 H17         3.7918    9.9469   -5.4248 H         1 <0>         0.3940
@<TRIPOS>BOND
     1    1    6 ar
     2    1    2 ar
     3    1   32 1
     4    2    3 ar
     5    2   33 1
     6    3    4 ar
     7    3   34 1
     8    4    5 ar
     9    4    7 1
    10    5    6 ar
    11    5   35 1
    12    6   36 1
    13    7    8 2
    14    7    9 2
    15    7   10 1
    16   10   11 1
    17   10   37 1
    18   11   16 ar
    19   11   12 ar
    20   12   13 ar
    21   12   38 1
    22   13   14 ar
    23   13   39 1
    24   14   15 ar
    25   14   40 1
    26   15   16 ar
    27   15   17 1
    28   16   41 1
    29   17   18 2
    30   17   19 1
    31   19   20 1
    32   19   42 1
    33   19   43 1
    34   20   28 1
    35   20   21 1
    36   20   31 1
    37   21   26 ar
    38   21   22 ar
    39   22   23 ar
    40   22   44 1
    41   23   24 ar
    42   23   30 1
    43   24   25 ar
    44   24   45 1
    45   25   26 ar
    46   25   46 1
    47   26   27 1
    48   27   28 am
    49   27   47 1
    50   28   29 2
    51   31   48 1
@<TRIPOS>MOLECULE
ZINC08800961
   61    65     0     0     0
SMALL
USER_CHARGES
2-amino-N-[[4-[(5S)-5-[(1R)-1-cyclohexa-2,4-dienyl]-3-phenyl-4,5-dihydropyrazol-1-yl]phenyl]methyleneamino]-4-methyl-thiazole-5-carboxamide
@<TRIPOS>ATOM
      1 C1          7.3069  -10.5866   -2.1402 C.3       1 <0>        -0.0965
      2 C2          8.4173   -9.5678   -2.1386 C.2       1 <0>         0.2177
      3 C3          8.1545   -8.2210   -1.9312 C.2       1 <0>        -0.3237
      4 S1          9.8058   -7.5449   -2.0306 S.3       1 <0>         0.0584
      5 C4         10.6442   -9.0356   -2.3306 C.2       1 <0>         0.3786
      6 N1          9.6603   -9.9227   -2.3372 N.2       1 <0>        -0.5879
      7 N2         11.9943   -9.2437   -2.5154 N.pl3     1 <0>        -0.7823
      8 C5          6.8812   -7.5442   -1.6915 C.2       1 <0>         0.6392
      9 O1          5.8468   -8.1864   -1.6585 O.2       1 <0>        -0.4936
     10 N3          6.8517   -6.2094   -1.5070 N.am      1 <0>        -0.5813
     11 N4          5.6314   -5.5607   -1.2773 N.2       1 <0>        -0.2328
     12 C6          5.6030   -4.2749   -1.0996 C.2       1 <0>         0.1213
     13 C7          4.3194   -3.5926   -0.8580 C.ar      1 <0>        -0.1057
     14 C8          4.2871   -2.2082   -0.6664 C.ar      1 <0>        -0.0461
     15 C9          3.0858   -1.5737   -0.4413 C.ar      1 <0>        -0.1690
     16 C10         1.9048   -2.3090   -0.4044 C.ar      1 <0>         0.2523
     17 C11         1.9340   -3.6881   -0.5895 C.ar      1 <0>        -0.1881
     18 C12         3.1312   -4.3282   -0.8203 C.ar      1 <0>        -0.0304
     19 N5          0.6913   -1.6640   -0.1760 N.pl3     1 <0>        -0.4589
     20 C13        -0.6380   -2.2912   -0.2467 C.3       1 <0>         0.1245
     21 H1         -0.7269   -3.0910    0.4885 H         1 <0>         0.0902
     22 C14        -1.6016   -1.1359    0.0894 C.3       1 <0>        -0.1597
     23 C15        -0.6871    0.0462    0.3187 C.2       1 <0>         0.1179
     24 N6          0.5378   -0.3183    0.1513 N.2       1 <0>        -0.2261
     25 C16        -1.1289    1.4076    0.6730 C.ar      1 <0>        -0.0244
     26 C17        -2.4898    1.6887    0.8168 C.ar      1 <0>        -0.0933
     27 C18        -2.8954    2.9632    1.1536 C.ar      1 <0>        -0.1204
     28 C19        -1.9587    3.9649    1.3381 C.ar      1 <0>        -0.1071
     29 C20        -0.6094    3.6950    1.1922 C.ar      1 <0>        -0.1214
     30 C21        -0.1888    2.4239    0.8608 C.ar      1 <0>        -0.0863
     31 C22        -0.9074   -2.8244   -1.6552 C.3       1 <0>        -0.0691
     32 H2         -0.4218   -3.7930   -1.7747 H         1 <0>         0.0930
     33 C23        -0.3440   -1.8457   -2.6849 C.3       1 <0>        -0.0912
     34 C24        -1.1700   -0.5868   -2.7013 C.2       1 <0>        -0.1301
     35 C25        -2.4814   -0.6458   -2.4968 C.2       1 <0>        -0.1467
     36 C26        -3.1250   -1.9464   -2.2513 C.2       1 <0>        -0.1226
     37 C27        -2.3916   -2.9811   -1.8553 C.2       1 <0>        -0.1473
     38 H3          6.9191  -10.6998   -3.1526 H         1 <0>         0.0856
     39 H4          7.6919  -11.5442   -1.7894 H         1 <0>         0.0772
     40 H5          6.5066  -10.2528   -1.4798 H         1 <0>         0.0989
     41 H6         12.6092   -8.4941   -2.4850 H         1 <0>         0.4251
     42 H7         12.3294  -10.1398   -2.6758 H         1 <0>         0.4217
     43 H8          7.6755   -5.6979   -1.5332 H         1 <0>         0.3818
     44 H9          6.5202   -3.7054   -1.1288 H         1 <0>         0.1179
     45 H10         5.2032   -1.6369   -0.6952 H         1 <0>         0.1304
     46 H11         3.0601   -0.5041   -0.2936 H         1 <0>         0.1342
     47 H12         1.0162   -4.2564   -0.5561 H         1 <0>         0.1267
     48 H13         3.1526   -5.3978   -0.9682 H         1 <0>         0.1389
     49 H14        -2.1686   -1.3615    0.9926 H         1 <0>         0.0925
     50 H15        -2.2735   -0.9429   -0.7468 H         1 <0>         0.1411
     51 H16        -3.2223    0.9089    0.6687 H         1 <0>         0.1264
     52 H17        -3.9469    3.1811    1.2688 H         1 <0>         0.1275
     53 H18        -2.2823    4.9622    1.5969 H         1 <0>         0.1249
     54 H19         0.1161    4.4817    1.3377 H         1 <0>         0.1266
     55 H20         0.8646    2.2148    0.7466 H         1 <0>         0.1302
     56 H21         0.6856   -1.5998   -2.4250 H         1 <0>         0.0833
     57 H22        -0.3666   -2.3064   -3.6725 H         1 <0>         0.0790
     58 H23        -0.6951    0.3666   -2.8797 H         1 <0>         0.1133
     59 H24        -3.0731    0.2576   -2.5102 H         1 <0>         0.1207
     60 H25        -4.1896   -2.0595   -2.3930 H         1 <0>         0.1230
     61 H26        -2.8612   -3.9371   -1.6766 H         1 <0>         0.1220
@<TRIPOS>BOND
     1    1    2 1
     2    1   38 1
     3    1   39 1
     4    1   40 1
     5    2    6 1
     6    2    3 2
     7    3    4 1
     8    3    8 1
     9    4    5 1
    10    5    6 2
    11    5    7 1
    12    7   41 1
    13    7   42 1
    14    8    9 2
    15    8   10 am
    16   10   11 1
    17   10   43 1
    18   11   12 2
    19   12   13 1
    20   12   44 1
    21   13   18 ar
    22   13   14 ar
    23   14   15 ar
    24   14   45 1
    25   15   16 ar
    26   15   46 1
    27   16   17 ar
    28   16   19 1
    29   17   18 ar
    30   17   47 1
    31   18   48 1
    32   19   24 1
    33   19   20 1
    34   20   21 1
    35   20   22 1
    36   20   31 1
    37   22   23 1
    38   22   49 1
    39   22   50 1
    40   23   24 2
    41   23   25 1
    42   25   30 ar
    43   25   26 ar
    44   26   27 ar
    45   26   51 1
    46   27   28 ar
    47   27   52 1
    48   28   29 ar
    49   28   53 1
    50   29   30 ar
    51   29   54 1
    52   30   55 1
    53   31   32 1
    54   31   37 1
    55   31   33 1
    56   33   34 1
    57   33   56 1
    58   33   57 1
    59   34   35 2
    60   34   58 1
    61   35   36 1
    62   35   59 1
    63   36   37 2
    64   36   60 1
    65   37   61 1
@<TRIPOS>MOLECULE
ZINC15557163
   56    60     0     0     0
SMALL
USER_CHARGES
(5R)-5-methyl-N'-[2-[(oxoBLAHyl)methylsulfanyl]acetyl]-4,5,6,7-tetrahydrobenzothiophene-2-carbohydrazide
@<TRIPOS>ATOM
      1 C1          0.8302   -1.9980    1.2590 C.3       1 <0>        -0.1489
      2 C2          0.9913   -0.4888    1.0656 C.3       1 <0>        -0.0937
      3 H1          0.7883    0.0205    2.0076 H         1 <0>         0.0742
      4 C3          0.0021   -0.0041    0.0020 C.3       1 <0>        -0.1102
      5 C4         -0.0187    1.5312    0.0105 C.3       1 <0>        -0.0476
      6 C5          1.3959    2.0228   -0.0004 C.2       1 <0>        -0.1454
      7 C6          2.5219    1.2971    0.2657 C.2       1 <0>        -0.1430
      8 C7          3.7302    1.9711    0.1929 C.2       1 <0>        -0.0462
      9 C8          3.7103    3.3131   -0.1388 C.2       1 <0>        -0.2504
     10 S1          1.9630    3.6118   -0.3471 S.3       1 <0>         0.1528
     11 C9          4.8312    4.2467   -0.2820 C.2       1 <0>         0.6137
     12 O1          5.9711    3.8615   -0.0993 O.2       1 <0>        -0.5250
     13 N1          4.5996    5.5317   -0.6161 N.am      1 <0>        -0.5177
     14 N2          5.6709    6.4240   -0.7530 N.am      1 <0>        -0.5156
     15 C10         5.4392    7.7090   -1.0870 C.2       1 <0>         0.5356
     16 O2          4.3033    8.0929   -1.2691 O.2       1 <0>        -0.5102
     17 C11         6.5917    8.6688   -1.2343 C.3       1 <0>        -0.1518
     18 S2          5.9595   10.3079   -1.6863 S.3       1 <0>        -0.0613
     19 C12         7.4511   11.3312   -1.8230 C.3       1 <0>        -0.0882
     20 C13         7.0626   12.7378   -2.1991 C.2       1 <0>         0.4198
     21 N3          8.0307   13.6770   -2.3555 N.am      1 <0>        -0.6320
     22 H2          8.9591   13.4293   -2.2225 H         1 <0>         0.4212
     23 C14         7.7277   14.9454   -2.6911 C.2       1 <0>         0.5577
     24 O3          8.6069   15.7785   -2.8275 O.2       1 <0>        -0.5169
     25 C15         6.3523   15.2975   -2.8843 C.2       1 <0>        -0.2323
     26 C16         5.7950   16.6084   -3.2491 C.2       1 <0>        -0.0769
     27 C17         4.4591   16.6870   -3.3738 C.2       1 <0>        -0.1953
     28 S3          3.8671   15.0489   -3.0161 S.3       1 <0>         0.2006
     29 C18         5.4253   14.2630   -2.7017 C.2       1 <0>         0.0994
     30 N4          5.8011   13.0292   -2.3737 N.2       1 <0>        -0.4619
     31 C19         4.0045   18.0705   -3.7539 C.3       1 <0>        -0.0334
     32 C20         5.2799   18.7681   -4.2758 C.3       1 <0>        -0.1174
     33 C21         6.3869   17.9911   -3.5366 C.3       1 <0>        -0.0627
     34 C22         2.4229   -0.1835    0.6237 C.3       1 <0>        -0.0528
     35 H3          1.0296   -2.5084    0.3167 H         1 <0>         0.0568
     36 H4          1.5339   -2.3445    2.0159 H         1 <0>         0.0572
     37 H5         -0.1877   -2.2163    1.5821 H         1 <0>         0.0582
     38 H6         -0.9939   -0.3843    0.2289 H         1 <0>         0.0770
     39 H7          0.3142   -0.3599   -0.9798 H         1 <0>         0.0702
     40 H8         -0.5410    1.8962   -0.8739 H         1 <0>         0.0877
     41 H9         -0.5240    1.8866    0.9085 H         1 <0>         0.0905
     42 H10         4.6621    1.4619    0.3896 H         1 <0>         0.1469
     43 H11         3.6910    5.8387   -0.7617 H         1 <0>         0.4332
     44 H12         6.5795    6.1170   -0.6073 H         1 <0>         0.4353
     45 H13         7.1319    8.7355   -0.2899 H         1 <0>         0.1210
     46 H14         7.2649    8.3115   -2.0135 H         1 <0>         0.1210
     47 H15         7.9733   11.3419   -0.8663 H         1 <0>         0.1246
     48 H16         8.1062   10.9179   -2.5899 H         1 <0>         0.1245
     49 H17         3.2500   18.0207   -4.5389 H         1 <0>         0.0836
     50 H18         3.6116   18.5946   -2.8826 H         1 <0>         0.0895
     51 H19         5.3749   18.6506   -5.3552 H         1 <0>         0.0783
     52 H20         5.2901   19.8218   -3.9971 H         1 <0>         0.0869
     53 H21         6.6416   18.4937   -2.6035 H         1 <0>         0.0828
     54 H22         7.2697   17.8992   -4.1693 H         1 <0>         0.0799
     55 H23         3.1124   -0.4096    1.4371 H         1 <0>         0.0778
     56 H24         2.6728   -0.7878   -0.2484 H         1 <0>         0.0787
@<TRIPOS>BOND
     1    1    2 1
     2    1   35 1
     3    1   36 1
     4    1   37 1
     5    2    3 1
     6    2   34 1
     7    2    4 1
     8    4    5 1
     9    4   38 1
    10    4   39 1
    11    5    6 1
    12    5   40 1
    13    5   41 1
    14    6   10 1
    15    6    7 2
    16    7    8 1
    17    7   34 1
    18    8    9 2
    19    8   42 1
    20    9   10 1
    21    9   11 1
    22   11   12 2
    23   11   13 am
    24   13   14 1
    25   13   43 1
    26   14   15 am
    27   14   44 1
    28   15   16 2
    29   15   17 1
    30   17   18 1
    31   17   45 1
    32   17   46 1
    33   18   19 1
    34   19   20 1
    35   19   47 1
    36   19   48 1
    37   20   30 2
    38   20   21 1
    39   21   22 1
    40   21   23 am
    41   23   24 2
    42   23   25 1
    43   25   29 2
    44   25   26 1
    45   26   33 1
    46   26   27 2
    47   27   28 1
    48   27   31 1
    49   28   29 1
    50   29   30 1
    51   31   32 1
    52   31   49 1
    53   31   50 1
    54   32   33 1
    55   32   51 1
    56   32   52 1
    57   33   53 1
    58   33   54 1
    59   34   55 1
    60   34   56 1
@<TRIPOS>MOLECULE
ZINC23259760
   59    62     0     0     0
SMALL
USER_CHARGES

@<TRIPOS>ATOM
      1 C1         -0.0184    1.5028    0.0103 C.3       1 <0>        -0.1160
      2 C2          0.0021   -0.0041    0.0020 C.ar      1 <0>        -0.0812
      3 C3          0.0057   -0.6864   -1.2013 C.ar      1 <0>        -0.1228
      4 C4          0.0244   -2.0662   -1.2152 C.ar      1 <0>        -0.0976
      5 C5          0.0401   -2.7725   -0.0132 C.ar      1 <0>        -0.0353
      6 C6          0.0368   -2.0793    1.1964 C.ar      1 <0>        -0.0714
      7 C7          0.0229   -0.6994    1.1978 C.ar      1 <0>        -0.1194
      8 C8          0.0597   -4.2547   -0.0214 C.2       1 <0>        -0.0258
      9 C9         -0.9880   -4.9562   -0.5175 C.2       1 <0>        -0.1466
     10 S1         -0.4865   -6.6532   -0.3037 S.3       1 <0>         0.1548
     11 C10         1.1020   -6.3842    0.4393 C.2       1 <0>         0.1012
     12 C11         1.2093   -4.9852    0.4988 C.2       1 <0>        -0.2372
     13 C12         2.4237   -4.4799    1.0635 C.2       1 <0>         0.5545
     14 O1          2.6074   -3.2788    1.1623 O.2       1 <0>        -0.5077
     15 N1          3.3595   -5.3510    1.4841 N.am      1 <0>        -0.6359
     16 H1          4.1844   -5.0143    1.8676 H         1 <0>         0.4198
     17 C13         3.1714   -6.6918    1.3825 C.2       1 <0>         0.4063
     18 N2          2.0698   -7.1831    0.8814 N.2       1 <0>        -0.4589
     19 C14         4.2470   -7.6294    1.8673 C.3       1 <0>         0.0974
     20 N3          3.8184   -9.0182    1.6545 N.3       1 <0>        -0.5117
     21 C15         2.6617   -9.3473    2.4982 C.3       1 <0>         0.0112
     22 C16         4.9262   -9.9533    1.8919 C.3       1 <0>         0.1124
     23 H2          5.2760   -9.8490    2.9190 H         1 <0>         0.0604
     24 C17         6.0728   -9.6407    0.9284 C.3       1 <0>        -0.1481
     25 C18         4.4497  -11.3648    1.6645 C.ar      1 <0>        -0.0203
     26 C19         3.6015  -11.6464    0.6099 C.ar      1 <0>        -0.1117
     27 C20         3.1643  -12.9412    0.4013 C.ar      1 <0>        -0.0212
     28 C21         3.5758  -13.9543    1.2470 C.ar      1 <0>        -0.6748
     29 C22         4.4247  -13.6728    2.3010 C.ar      1 <0>        -0.0184
     30 C23         4.8652  -12.3788    2.5071 C.ar      1 <0>        -0.1363
     31 S2          3.0176  -15.6044    0.9818 S.o2      1 <0>         2.6996
     32 O2          3.1102  -16.2705    2.2336 O.2       1 <0>        -0.9639
     33 O3          1.7987  -15.5094    0.2577 O.2       1 <0>        -0.9622
     34 N4          4.1106  -16.3351   -0.0251 N.pl3     1 <0>        -1.2500
     35 C24        -2.2702   -4.4282   -1.1077 C.3       1 <0>        -0.0692
     36 H3          1.0042    1.8801    0.0026 H         1 <0>         0.0702
     37 H4         -0.5455    1.8639   -0.8728 H         1 <0>         0.0663
     38 H5         -0.5286    1.8543    0.9071 H         1 <0>         0.0659
     39 H6         -0.0064   -0.1382   -2.1318 H         1 <0>         0.1221
     40 H7          0.0265   -2.5979   -2.1552 H         1 <0>         0.1194
     41 H8          0.0488   -2.6212    2.1306 H         1 <0>         0.1130
     42 H9          0.0241   -0.1613    2.1342 H         1 <0>         0.1205
     43 H10         5.1672   -7.4441    1.3132 H         1 <0>         0.1208
     44 H11         4.4229   -7.4621    2.9299 H         1 <0>         0.0785
     45 H12         1.8324   -8.6841    2.2525 H         1 <0>         0.0953
     46 H13         2.3651  -10.3811    2.3208 H         1 <0>         0.0753
     47 H14         2.9295   -9.2210    3.5472 H         1 <0>         0.0237
     48 H15         6.4175   -8.6198    1.0929 H         1 <0>         0.0638
     49 H16         6.8948  -10.3345    1.1045 H         1 <0>         0.0683
     50 H17         5.7231   -9.7450   -0.0987 H         1 <0>         0.0725
     51 H18         3.2800  -10.8549   -0.0508 H         1 <0>         0.1465
     52 H19         2.5011  -13.1611   -0.4222 H         1 <0>         0.1436
     53 H20         4.7458  -14.4642    2.9620 H         1 <0>         0.1431
     54 H21         5.5314  -12.1595    3.3284 H         1 <0>         0.1327
     55 H22         4.8809  -15.8403   -0.3457 H         1 <0>         0.4167
     56 H23         3.9806  -17.2578   -0.2943 H         1 <0>         0.4214
     57 H24        -2.1458   -4.2896   -2.1816 H         1 <0>         0.0829
     58 H25        -3.0749   -5.1402   -0.9241 H         1 <0>         0.0782
     59 H26        -2.5173   -3.4731   -0.6442 H         1 <0>         0.0853
@<TRIPOS>BOND
     1    1    2 1
     2    1   36 1
     3    1   37 1
     4    1   38 1
     5    2    7 ar
     6    2    3 ar
     7    3    4 ar
     8    3   39 1
     9    4    5 ar
    10    4   40 1
    11    5    6 ar
    12    5    8 1
    13    6    7 ar
    14    6   41 1
    15    7   42 1
    16    8   12 1
    17    8    9 2
    18    9   10 1
    19    9   35 1
    20   10   11 1
    21   11   18 1
    22   11   12 2
    23   12   13 1
    24   13   14 2
    25   13   15 am
    26   15   16 1
    27   15   17 1
    28   17   18 2
    29   17   19 1
    30   19   20 1
    31   19   43 1
    32   19   44 1
    33   20   21 1
    34   20   22 1
    35   21   45 1
    36   21   46 1
    37   21   47 1
    38   22   23 1
    39   22   24 1
    40   22   25 1
    41   24   48 1
    42   24   49 1
    43   24   50 1
    44   25   30 ar
    45   25   26 ar
    46   26   27 ar
    47   26   51 1
    48   27   28 ar
    49   27   52 1
    50   28   29 ar
    51   28   31 1
    52   29   30 ar
    53   29   53 1
    54   30   54 1
    55   31   32 2
    56   31   33 2
    57   31   34 1
    58   34   55 1
    59   34   56 1
    60   35   57 1
    61   35   58 1
    62   35   59 1
@<TRIPOS>MOLECULE
ZINC43218930
   54    57     0     0     0
SMALL
USER_CHARGES

@<TRIPOS>ATOM
      1 C1         -1.4851    0.9143   -1.2217 C.3       1 <0>        -0.1534
      2 C2         -1.2523   -0.5964   -1.1544 C.3       1 <0>        -0.1203
      3 C3         -0.2328   -1.0033   -2.2202 C.3       1 <0>        -0.1384
      4 C4         -0.0001   -2.5140   -2.1529 C.3       1 <0>         0.1042
      5 N1          0.9761   -2.9036   -3.1735 N.am      1 <0>        -0.5916
      6 C5          0.6347   -3.2641   -4.4534 C.2       1 <0>         0.5934
      7 O1         -0.4347   -3.1160   -5.0048 O.2       1 <0>        -0.4556
      8 C6          1.8336   -3.8592   -4.9965 C.3       1 <0>        -0.2106
      9 H1          1.8812   -4.8077   -4.4616 H         1 <0>         0.1357
     10 C7          2.4343   -4.2034   -6.2929 C.3       1 <0>         0.1385
     11 H2          2.0158   -5.1361   -6.6712 H         1 <0>         0.1670
     12 N2          3.8949   -4.3675   -5.9927 N.4       1 <0>        -0.5075
     13 C8          4.1056   -3.9904   -4.5571 C.3       1 <0>         0.0531
     14 C9          2.9607   -2.9832   -4.3172 C.3       1 <0>        -0.1092
     15 H3          3.1186   -2.0024   -4.7658 H         1 <0>         0.1608
     16 C10         2.3239   -2.9415   -2.9553 C.2       1 <0>         0.5519
     17 O2          2.8913   -2.9435   -1.8840 O.2       1 <0>        -0.4067
     18 C11         3.9828   -5.1982   -3.6642 C.ar      1 <0>        -0.1156
     19 C12         3.4623   -6.3772   -4.1640 C.ar      1 <0>        -0.1460
     20 C13         3.3496   -7.4851   -3.3450 C.ar      1 <0>        -0.1133
     21 C14         3.7579   -7.4141   -2.0262 C.ar      1 <0>        -0.1018
     22 C15         4.2793   -6.2353   -1.5266 C.ar      1 <0>        -0.1097
     23 C16         4.3959   -5.1287   -2.3468 C.ar      1 <0>        -0.0575
     24 C17         5.4428   -3.3209   -4.3714 C.2       1 <0>         0.5092
     25 O3          6.1915   -3.1801   -5.3234 O.co2     1 <0>        -0.6545
     26 O4          5.7761   -2.9201   -3.2693 O.co2     1 <0>        -0.6008
     27 C18         2.2194   -3.0900   -7.2855 C.ar      1 <0>        -0.1569
     28 C19         3.1657   -2.0925   -7.4210 C.ar      1 <0>        -0.0857
     29 C20         2.9690   -1.0703   -8.3319 C.ar      1 <0>        -0.0889
     30 C21         1.8246   -1.0444   -9.1091 C.ar      1 <0>        -0.0518
     31 C22         0.8763   -2.0400   -8.9771 C.ar      1 <0>        -0.1276
     32 C23         1.0742   -3.0690   -8.0677 C.ar      1 <0>         0.1676
     33 O5          0.1445   -4.0522   -7.9396 O.3       1 <0>        -0.4931
     34 Br1         4.2656    0.2940   -8.5147 Br        1 <0>        -0.0178
     35 H4         -0.5445    1.4352   -1.0424 H         1 <0>         0.0558
     36 H5         -1.8651    1.1798   -2.2082 H         1 <0>         0.0546
     37 H6         -2.2114    1.2042   -0.4624 H         1 <0>         0.0583
     38 H7         -0.8722   -0.8618   -0.1679 H         1 <0>         0.0670
     39 H8         -2.1929   -1.1172   -1.3336 H         1 <0>         0.0660
     40 H9         -0.6129   -0.7378   -3.2067 H         1 <0>         0.0709
     41 H10         0.7077   -0.4824   -2.0410 H         1 <0>         0.0699
     42 H11         0.3800   -2.7794   -1.1665 H         1 <0>         0.1001
     43 H12        -0.9406   -3.0348   -2.3322 H         1 <0>         0.0952
     44 H13         4.1687   -5.3277   -6.1383 H         1 <0>         0.4292
     45 H14         3.1433   -6.4327   -5.1944 H         1 <0>         0.1102
     46 H15         2.9423   -8.4060   -3.7353 H         1 <0>         0.1308
     47 H16         3.6692   -8.2794   -1.3861 H         1 <0>         0.1301
     48 H17         4.5979   -6.1797   -0.4962 H         1 <0>         0.1337
     49 H18         4.8066   -4.2089   -1.9575 H         1 <0>         0.1701
     50 H19         4.0595   -2.1107   -6.8150 H         1 <0>         0.1449
     51 H20         1.6725   -0.2451   -9.8193 H         1 <0>         0.1489
     52 H21        -0.0170   -2.0192   -9.5837 H         1 <0>         0.1515
     53 H22        -0.5394   -3.8636   -7.2825 H         1 <0>         0.4078
     54 H23         4.4374   -3.7608   -6.5892 H         1 <0>         0.4378
@<TRIPOS>BOND
     1    1    2 1
     2    1   35 1
     3    1   36 1
     4    1   37 1
     5    2    3 1
     6    2   38 1
     7    2   39 1
     8    3    4 1
     9    3   40 1
    10    3   41 1
    11    4    5 1
    12    4   42 1
    13    4   43 1
    14    5   16 am
    15    5    6 am
    16    6    7 2
    17    6    8 1
    18    8    9 1
    19    8   14 1
    20    8   10 1
    21   10   11 1
    22   10   12 1
    23   10   27 1
    24   12   13 1
    25   12   44 1
    26   12   54 1
    27   13   14 1
    28   13   18 1
    29   13   24 1
    30   14   15 1
    31   14   16 1
    32   16   17 2
    33   18   23 ar
    34   18   19 ar
    35   19   20 ar
    36   19   45 1
    37   20   21 ar
    38   20   46 1
    39   21   22 ar
    40   21   47 1
    41   22   23 ar
    42   22   48 1
    43   23   49 1
    44   24   25 2
    45   24   26 1
    46   27   32 ar
    47   27   28 ar
    48   28   29 ar
    49   28   50 1
    50   29   30 ar
    51   29   34 1
    52   30   31 ar
    53   30   51 1
    54   31   32 ar
    55   31   52 1
    56   32   33 1
    57   33   53 1
@<TRIPOS>MOLECULE
ZINC08757678
   51    54     0     0     0
SMALL
USER_CHARGES
5-[anilino-[(3-fluorophenyl)methylamino]methylene]-1-(4-bromophenyl)-hexahydropyrimidine-2,4,6-trione
@<TRIPOS>ATOM
      1 C1         -2.6305   -7.3476   -0.5892 C.ar      1 <0>        -0.1576
      2 C2         -1.6089   -7.5655    0.3170 C.ar      1 <0>        -0.0759
      3 C3         -0.4361   -6.8420    0.2250 C.ar      1 <0>        -0.1635
      4 C4         -0.2834   -5.8946   -0.7791 C.ar      1 <0>         0.2146
      5 C5         -1.3136   -5.6741   -1.6842 C.ar      1 <0>        -0.1813
      6 C6         -2.4816   -6.4051   -1.5901 C.ar      1 <0>        -0.0755
      7 N1          0.9029   -5.1603   -0.8752 N.pl3     1 <0>        -0.7010
      8 C7          1.0167   -4.1675   -1.8020 C.2       1 <0>         0.6165
      9 C8          1.4430   -4.4686   -3.1023 C.2       1 <0>        -0.4408
     10 C9          1.4692   -3.4678   -4.1124 C.2       1 <0>         0.5895
     11 O1          1.1204   -2.3284   -3.8628 O.2       1 <0>        -0.5336
     12 N2          1.8909   -3.7991   -5.3493 N.am      1 <0>        -0.6600
     13 C10         2.2718   -5.0553   -5.6353 C.2       1 <0>         0.7110
     14 O2          2.6408   -5.3167   -6.7635 O.2       1 <0>        -0.5192
     15 N3          2.2577   -6.0311   -4.7121 N.am      1 <0>        -0.5200
     16 C11         1.8553   -5.7843   -3.4493 C.2       1 <0>         0.5849
     17 O3          1.8448   -6.6746   -2.6188 O.2       1 <0>        -0.4872
     18 C12         2.6667   -7.3241   -5.0669 C.ar      1 <0>         0.1498
     19 C13         3.7981   -7.8797   -4.4850 C.ar      1 <0>        -0.0859
     20 C14         4.1962   -9.1557   -4.8328 C.ar      1 <0>        -0.0804
     21 C15         3.4745   -9.8761   -5.7680 C.ar      1 <0>        -0.0817
     22 C16         2.3496   -9.3226   -6.3533 C.ar      1 <0>        -0.0800
     23 C17         1.9443   -8.0490   -6.0051 C.ar      1 <0>        -0.0865
     24 Br1         4.0270  -11.6198   -6.2476 Br        1 <0>        -0.0418
     25 N4          0.7162   -2.8828   -1.4643 N.pl3     1 <0>        -0.6511
     26 C18         0.3560   -2.5538   -0.0829 C.3       1 <0>         0.1361
     27 C19         0.1927   -1.0617    0.0518 C.ar      1 <0>        -0.0915
     28 C20        -1.0426   -0.4794   -0.1646 C.ar      1 <0>        -0.1054
     29 C21        -1.1938    0.8890   -0.0419 C.ar      1 <0>        -0.0883
     30 C22        -0.1101    1.6770    0.2975 C.ar      1 <0>        -0.1382
     31 C23         1.1272    1.0951    0.5144 C.ar      1 <0>         0.1006
     32 C24         1.2775   -0.2760    0.3912 C.ar      1 <0>        -0.1315
     33 F1          2.1872    1.8643    0.8457 F         1 <0>        -0.1346
     34 H1         -3.5467   -7.9144   -0.5148 H         1 <0>         0.1227
     35 H2         -1.7285   -8.3020    1.0978 H         1 <0>         0.1266
     36 H3          0.3612   -7.0124    0.9332 H         1 <0>         0.1257
     37 H4         -1.1998   -4.9348   -2.4632 H         1 <0>         0.1155
     38 H5         -3.2813   -6.2373   -2.2963 H         1 <0>         0.1237
     39 H6          1.6448   -5.3575   -0.2821 H         1 <0>         0.4263
     40 H7          1.9152   -3.1222   -6.0436 H         1 <0>         0.4356
     41 H8          4.3643   -7.3161   -3.7582 H         1 <0>         0.1348
     42 H9          5.0737   -9.5901   -4.3771 H         1 <0>         0.1417
     43 H10         1.7878   -9.8870   -7.0827 H         1 <0>         0.1419
     44 H11         1.0663   -7.6172   -6.4625 H         1 <0>         0.1350
     45 H12         0.7405   -2.1857   -2.1383 H         1 <0>         0.4360
     46 H13         1.1434   -2.8952    0.5891 H         1 <0>         0.0941
     47 H14        -0.5812   -3.0467    0.1756 H         1 <0>         0.0973
     48 H15        -1.8899   -1.0943   -0.4301 H         1 <0>         0.1340
     49 H16        -2.1582    1.3432   -0.2155 H         1 <0>         0.1397
     50 H17        -0.2286    2.7461    0.3936 H         1 <0>         0.1408
     51 H18         2.2422   -0.7311    0.5605 H         1 <0>         0.1382
@<TRIPOS>BOND
     1    1    6 ar
     2    1    2 ar
     3    1   34 1
     4    2    3 ar
     5    2   35 1
     6    3    4 ar
     7    3   36 1
     8    4    5 ar
     9    4    7 1
    10    5    6 ar
    11    5   37 1
    12    6   38 1
    13    7    8 1
    14    7   39 1
    15    8    9 2
    16    8   25 1
    17    9   16 1
    18    9   10 1
    19   10   11 2
    20   10   12 am
    21   12   13 am
    22   12   40 1
    23   13   14 2
    24   13   15 am
    25   15   16 am
    26   15   18 1
    27   16   17 2
    28   18   23 ar
    29   18   19 ar
    30   19   20 ar
    31   19   41 1
    32   20   21 ar
    33   20   42 1
    34   21   22 ar
    35   21   24 1
    36   22   23 ar
    37   22   43 1
    38   23   44 1
    39   25   26 1
    40   25   45 1
    41   26   27 1
    42   26   46 1
    43   26   47 1
    44   27   32 ar
    45   27   28 ar
    46   28   29 ar
    47   28   48 1
    48   29   30 ar
    49   29   49 1
    50   30   31 ar
    51   30   50 1
    52   31   32 ar
    53   31   33 1
    54   32   51 1
@<TRIPOS>MOLECULE
ZINC14461236
   56    60     0     0     0
SMALL
USER_CHARGES
(3aS,4R,9bS)-4-(5-bromo-2-hydroxy-phenyl)-N-[[(2S)-tetrahydrofuran-2-yl]methyl]-3a,4,5,9b-tetrahydro-3H-cyclopenta[c]quinoline-8-sulfonamide
@<TRIPOS>ATOM
      1 C1          4.0165    2.4221   -0.1312 C.ar      1 <0>         0.0292
      2 C2          3.3672    2.0330   -1.2851 C.ar      1 <0>        -0.2116
      3 C3          2.0459    1.6062   -1.2368 C.ar      1 <0>         0.2669
      4 C4          1.3865    1.5648   -0.0028 C.ar      1 <0>        -0.1535
      5 C5          2.0420    1.9597    1.1428 C.ar      1 <0>         0.0274
      6 C6          3.3556    2.3885    1.0828 C.ar      1 <0>        -0.7247
      7 S1          4.1862    2.8925    2.5528 S.o2      1 <0>         2.6966
      8 O1          3.5236    2.2510    3.6339 O.2       1 <0>        -0.9610
      9 O2          5.5769    2.7323    2.3086 O.2       1 <0>        -0.9614
     10 N1          3.9213    4.5172    2.7324 N.pl3     1 <0>        -1.1132
     11 C7          2.5651    5.0160    2.9734 C.3       1 <0>         0.1079
     12 C8          2.6339    6.4624    3.4675 C.3       1 <0>         0.0735
     13 H1          3.2860    6.5247    4.3387 H         1 <0>         0.0923
     14 C9          1.2187    6.9587    3.8337 C.3       1 <0>        -0.1510
     15 C10         1.2395    8.4236    3.3183 C.3       1 <0>        -0.1566
     16 C11         2.1398    8.2817    2.0652 C.3       1 <0>         0.0487
     17 O3          3.1332    7.3087    2.4253 O.3       1 <0>        -0.3745
     18 C12        -0.0127    1.0858    0.0080 C.3       1 <0>        -0.0389
     19 H2          0.0021   -0.0041    0.0020 H         1 <0>         0.0948
     20 C13        -0.9858    1.5273    1.0398 C.2       1 <0>        -0.1517
     21 C14        -2.1878    1.5639    0.5268 C.2       1 <0>        -0.1618
     22 C15        -2.1294    1.1736   -0.9513 C.3       1 <0>        -0.0839
     23 C16        -0.6885    1.5560   -1.3150 C.3       1 <0>        -0.0997
     24 H3         -0.5720    2.6283   -1.4723 H         1 <0>         0.0974
     25 C17        -0.0029    0.7724   -2.4200 C.3       1 <0>         0.2099
     26 H4         -0.4725    0.9858   -3.3802 H         1 <0>         0.1076
     27 N2          1.4018    1.2362   -2.4237 N.pl3     1 <0>        -0.7359
     28 C18        -0.0627   -0.7050   -2.1289 C.ar      1 <0>        -0.1248
     29 C19         0.9598   -1.3131   -1.4263 C.ar      1 <0>        -0.0606
     30 C20         0.9054   -2.6691   -1.1589 C.ar      1 <0>        -0.1010
     31 C21        -0.1727   -3.4193   -1.5942 C.ar      1 <0>        -0.0709
     32 C22        -1.1971   -2.8152   -2.2964 C.ar      1 <0>        -0.1379
     33 C23        -1.1470   -1.4541   -2.5612 C.ar      1 <0>         0.1333
     34 O4         -2.1568   -0.8567   -3.2472 O.3       1 <0>        -0.4893
     35 Br1         2.3060   -3.4986   -0.1966 Br        1 <0>        -0.0390
     36 H5          5.0434    2.7533   -0.1765 H         1 <0>         0.1396
     37 H6          3.8887    2.0607   -2.2304 H         1 <0>         0.1310
     38 H7          1.5278    1.9344    2.0921 H         1 <0>         0.1368
     39 H8          4.6641    5.1387    2.6780 H         1 <0>         0.4224
     40 H9          1.9930    4.9756    2.0464 H         1 <0>         0.0701
     41 H10         2.0790    4.3972    3.7276 H         1 <0>         0.0896
     42 H11         0.4571    6.3760    3.3155 H         1 <0>         0.0823
     43 H12         1.0642    6.9291    4.9122 H         1 <0>         0.0885
     44 H13         1.6901    9.0919    4.0521 H         1 <0>         0.0804
     45 H14         0.2387    8.7595    3.0469 H         1 <0>         0.0852
     46 H15         2.6122    9.2352    1.8289 H         1 <0>         0.0867
     47 H16         1.5553    7.9290    1.2155 H         1 <0>         0.0608
     48 H17        -0.7489    1.7769    2.0635 H         1 <0>         0.1282
     49 H18        -3.0872    1.8299    1.0622 H         1 <0>         0.1311
     50 H19        -2.8460    1.7502   -1.5362 H         1 <0>         0.0745
     51 H20        -2.2940    0.1038   -1.0802 H         1 <0>         0.0893
     52 H21         1.8851    1.2852   -3.2633 H         1 <0>         0.4066
     53 H22         1.8019   -0.7292   -1.0854 H         1 <0>         0.1394
     54 H23        -0.2133   -4.4780   -1.3844 H         1 <0>         0.1394
     55 H24        -2.0386   -3.4011   -2.6357 H         1 <0>         0.1417
     56 H25        -2.0310   -0.8502   -4.2060 H         1 <0>         0.3937
@<TRIPOS>BOND
     1    1    6 ar
     2    1    2 ar
     3    1   36 1
     4    2    3 ar
     5    2   37 1
     6    3   27 1
     7    3    4 ar
     8    4    5 ar
     9    4   18 1
    10    5    6 ar
    11    5   38 1
    12    6    7 1
    13    7    8 2
    14    7    9 2
    15    7   10 1
    16   10   11 1
    17   10   39 1
    18   11   12 1
    19   11   40 1
    20   11   41 1
    21   12   13 1
    22   12   17 1
    23   12   14 1
    24   14   15 1
    25   14   42 1
    26   14   43 1
    27   15   16 1
    28   15   44 1
    29   15   45 1
    30   16   17 1
    31   16   46 1
    32   16   47 1
    33   18   19 1
    34   18   23 1
    35   18   20 1
    36   20   21 2
    37   20   48 1
    38   21   22 1
    39   21   49 1
    40   22   23 1
    41   22   50 1
    42   22   51 1
    43   23   24 1
    44   23   25 1
    45   25   26 1
    46   25   27 1
    47   25   28 1
    48   27   52 1
    49   28   33 ar
    50   28   29 ar
    51   29   30 ar
    52   29   53 1
    53   30   31 ar
    54   30   35 1
    55   31   32 ar
    56   31   54 1
    57   32   33 ar
    58   32   55 1
    59   33   34 1
    60   34   56 1
@<TRIPOS>MOLECULE
ZINC20581945
   67    70     0     0     0
SMALL
USER_CHARGES
N-(2,5-dimethylphenyl)-4-[[(2-oxo-1,3,4,5-tetrahydro-1-benzazepin-7-yl)sulfonylamino]methyl]cyclohexane-1-carboxamide
@<TRIPOS>ATOM
      1 C1        -11.1549    4.7658    4.1169 C.3       1 <0>        -0.1161
      2 C2        -11.3247    3.3226    3.7174 C.ar      1 <0>        -0.0704
      3 C3        -12.3217    2.9646    2.8282 C.ar      1 <0>        -0.1374
      4 C4        -12.4804    1.6418    2.4589 C.ar      1 <0>        -0.0968
      5 C5        -11.6394    0.6740    2.9730 C.ar      1 <0>        -0.1259
      6 C6        -10.6412    1.0293    3.8703 C.ar      1 <0>         0.1572
      7 C7        -10.4843    2.3591    4.2393 C.ar      1 <0>        -0.1318
      8 N1         -9.7914    0.0505    4.3974 N.am      1 <0>        -0.6828
      9 C8         -8.5618    0.3893    4.8331 C.2       1 <0>         0.5200
     10 O1         -8.1537    1.5208    4.6774 O.2       1 <0>        -0.5142
     11 C9         -7.6941   -0.6377    5.5139 C.3       1 <0>        -0.1079
     12 C10        -6.3605    0.0011    5.9066 C.3       1 <0>        -0.0963
     13 C11        -5.6524    0.5159    4.6518 C.3       1 <0>        -0.1311
     14 C12        -5.3971   -0.6507    3.6953 C.3       1 <0>        -0.0867
     15 C13        -6.7308   -1.2894    3.3026 C.3       1 <0>        -0.1207
     16 C14        -7.4388   -1.8043    4.5574 C.3       1 <0>        -0.1121
     17 C15        -4.6891   -0.1359    2.4405 C.3       1 <0>         0.1196
     18 N2         -4.3380   -1.2675    1.5789 N.pl3     1 <0>        -1.1194
     19 S1         -3.9044   -1.0046    0.0025 S.o2      1 <0>         2.6948
     20 O2         -4.8918   -0.1467   -0.5527 O.2       1 <0>        -0.9538
     21 O3         -3.6012   -2.2769   -0.5530 O.2       1 <0>        -0.9603
     22 C16        -2.3975   -0.0916    0.0220 C.ar      1 <0>        -0.7081
     23 C17        -2.4200    1.2915    0.0294 C.ar      1 <0>         0.0067
     24 C18        -1.2365    1.9880    0.0399 C.ar      1 <0>        -0.1825
     25 C19         0.0043    1.3267    0.0424 C.ar      1 <0>         0.2506
     26 C20         0.0204   -0.0510    0.0439 C.ar      1 <0>        -0.1384
     27 C21        -1.1886   -0.7483    0.0296 C.ar      1 <0>         0.0200
     28 C22         1.2505   -0.8990    0.0637 C.3       1 <0>        -0.0837
     29 C23         2.3964   -0.3645    0.8653 C.3       1 <0>        -0.1244
     30 C24         3.1550    0.7394    0.1687 C.3       1 <0>        -0.1461
     31 C25         2.3908    2.0142    0.1537 C.2       1 <0>         0.5210
     32 O4          3.0391    3.0334    0.2630 O.2       1 <0>        -0.5379
     33 N3          1.1013    2.1572    0.0356 N.am      1 <0>        -0.6659
     34 C26       -11.8092   -0.7668    2.5651 C.3       1 <0>        -0.1112
     35 H1        -11.9094    5.3796    3.6032 H         1 <0>         0.0656
     36 H2        -10.1487    5.1086    3.8339 H         1 <0>         0.0709
     37 H3        -11.2826    4.8624    5.2052 H         1 <0>         0.0688
     38 H4        -12.9778    3.7200    2.4217 H         1 <0>         0.1212
     39 H5        -13.2596    1.3655    1.7641 H         1 <0>         0.1243
     40 H6         -9.7058    2.6393    4.9334 H         1 <0>         0.1440
     41 H7        -10.1269   -0.9954    4.4562 H         1 <0>         0.4301
     42 H8         -8.2151   -0.9983    6.4131 H         1 <0>         0.1002
     43 H9         -6.5441    0.8399    6.5942 H         1 <0>         0.0714
     44 H10        -5.7271   -0.7485    6.4036 H         1 <0>         0.0708
     45 H11        -6.2857    1.2656    4.1549 H         1 <0>         0.0963
     46 H12        -4.6935    0.9751    4.9342 H         1 <0>         0.0638
     47 H13        -4.7637   -1.4004    4.1921 H         1 <0>         0.0779
     48 H14        -7.3642   -0.5397    2.8058 H         1 <0>         0.0652
     49 H15        -6.5473   -2.1281    2.6149 H         1 <0>         0.0733
     50 H16        -6.8054   -2.5539    5.0543 H         1 <0>         0.0798
     51 H17        -8.3976   -2.2636    4.2750 H         1 <0>         0.0665
     52 H18        -5.3584    0.5460    1.8956 H         1 <0>         0.0840
     53 H19        -3.7744    0.4020    2.7302 H         1 <0>         0.0617
     54 H20        -4.2017   -2.2686    2.0140 H         1 <0>         0.4408
     55 H21        -3.3618    1.8200    0.0269 H         1 <0>         0.1455
     56 H22        -1.2594    3.0677    0.0469 H         1 <0>         0.1368
     57 H23        -1.1748   -1.8282    0.0246 H         1 <0>         0.1436
     58 H24         1.0099   -1.8841    0.4899 H         1 <0>         0.0885
     59 H25         1.6254   -1.0252   -0.9627 H         1 <0>         0.0809
     60 H26         2.0207    0.0428    1.8156 H         1 <0>         0.0667
     61 H27         3.1102   -1.1759    1.0708 H         1 <0>         0.0892
     62 H28         4.1075    0.9153    0.6901 H         1 <0>         0.1108
     63 H29         3.3556    0.4461   -0.8723 H         1 <0>         0.1040
     64 H30         0.9697    3.2412   -0.0969 H         1 <0>         0.4276
     65 H31       -11.0536   -1.3834    3.0740 H         1 <0>         0.0570
     66 H32       -11.6831   -0.8568    1.4761 H         1 <0>         0.0735
     67 H33       -12.8148   -1.1117    2.8476 H         1 <0>         0.0715
@<TRIPOS>BOND
     1    1    2 1
     2    1   35 1
     3    1   36 1
     4    1   37 1
     5    2    7 ar
     6    2    3 ar
     7    3    4 ar
     8    3   38 1
     9    4    5 ar
    10    4   39 1
    11    5    6 ar
    12    5   34 1
    13    6    7 ar
    14    6    8 1
    15    7   40 1
    16    8    9 am
    17    8   41 1
    18    9   10 2
    19    9   11 1
    20   11   16 1
    21   11   12 1
    22   11   42 1
    23   12   13 1
    24   12   43 1
    25   12   44 1
    26   13   14 1
    27   13   45 1
    28   13   46 1
    29   14   15 1
    30   14   17 1
    31   14   47 1
    32   15   16 1
    33   15   48 1
    34   15   49 1
    35   16   50 1
    36   16   51 1
    37   17   18 1
    38   17   52 1
    39   17   53 1
    40   18   19 1
    41   18   54 1
    42   19   20 2
    43   19   21 2
    44   19   22 1
    45   22   27 ar
    46   22   23 ar
    47   23   24 ar
    48   23   55 1
    49   24   25 ar
    50   24   56 1
    51   25   33 1
    52   25   26 ar
    53   26   27 ar
    54   26   28 1
    55   27   57 1
    56   28   29 1
    57   28   58 1
    58   28   59 1
    59   29   30 1
    60   29   60 1
    61   29   61 1
    62   30   31 1
    63   30   62 1
    64   30   63 1
    65   31   32 2
    66   31   33 am
    67   33   64 1
    68   34   65 1
    69   34   66 1
    70   34   67 1
@<TRIPOS>MOLECULE
ZINC08596778
   58    61     0     0     0
SMALL
USER_CHARGES

@<TRIPOS>ATOM
      1 C1         -0.0184    1.5028    0.0103 C.3       1 <0>        -0.1195
      2 C2          0.0021   -0.0041    0.0020 C.ar      1 <0>        -0.0752
      3 C3          0.0057   -0.6887   -1.1989 C.ar      1 <0>        -0.1229
      4 C4          0.0245   -2.0709   -1.2065 C.ar      1 <0>        -0.0953
      5 C5          0.0400   -2.7685   -0.0132 C.ar      1 <0>        -0.1192
      6 C6          0.0373   -2.0839    1.1877 C.ar      1 <0>        -0.0951
      7 C7          0.0229   -0.7016    1.1953 C.ar      1 <0>        -0.1227
      8 C8          0.0595   -4.2753   -0.0215 C.3       1 <0>         0.1629
      9 N1          1.4468   -4.7457   -0.0317 N.am      1 <0>        -0.7225
     10 C9          1.7102   -6.0675   -0.0404 C.2       1 <0>         0.5629
     11 O1          0.7962   -6.8695   -0.0397 O.2       1 <0>        -0.5371
     12 C10         3.1073   -6.5412   -0.0507 C.ar      1 <0>        -0.1446
     13 C11         4.1576   -5.6190   -0.0458 C.ar      1 <0>        -0.0661
     14 C12         5.4631   -6.0606   -0.0513 C.ar      1 <0>        -0.1396
     15 C13         5.7343   -7.4212   -0.0638 C.ar      1 <0>         0.1906
     16 C14         4.6897   -8.3511   -0.0763 C.ar      1 <0>         0.0882
     17 C15         3.3800   -7.9124   -0.0597 C.ar      1 <0>        -0.0566
     18 N2          4.9796   -9.7205   -0.1142 N.am      1 <0>        -0.6492
     19 C16         6.2348  -10.1533   -0.3323 C.2       1 <0>         0.5222
     20 O2          6.4865  -11.3363   -0.2403 O.2       1 <0>        -0.5090
     21 C17         7.3316   -9.1826   -0.6903 C.3       1 <0>         0.1621
     22 H1          8.2876   -9.5642   -0.3315 H         1 <0>         0.1403
     23 N3          7.0506   -7.8864   -0.0569 N.pl3     1 <0>        -0.7445
     24 C18         7.3869   -9.0106   -2.2096 C.3       1 <0>        -0.6437
     25 S1          8.7989   -7.9596   -2.6481 S.o2      1 <0>         2.4176
     26 O3          8.5699   -6.6581   -2.1257 O.2       1 <0>        -0.9130
     27 O4          9.9943   -8.6440   -2.2987 O.2       1 <0>        -0.9225
     28 C19         8.6918   -7.8788   -4.4571 C.3       1 <0>        -0.5633
     29 C20         9.8151   -7.0268   -4.9893 C.ar      1 <0>        -0.1084
     30 C21         9.6356   -5.6647   -5.1432 C.ar      1 <0>        -0.0699
     31 C22        10.6652   -4.8822   -5.6307 C.ar      1 <0>        -0.1520
     32 C23        11.8768   -5.4630   -5.9650 C.ar      1 <0>         0.1135
     33 C24        12.0554   -6.8273   -5.8104 C.ar      1 <0>        -0.1517
     34 C25        11.0262   -7.6069   -5.3178 C.ar      1 <0>        -0.0710
     35 F1         12.8839   -4.6992   -6.4421 F         1 <0>        -0.1333
     36 H2          1.0042    1.8801    0.0026 H         1 <0>         0.0730
     37 H3         -0.5455    1.8639   -0.8728 H         1 <0>         0.0681
     38 H4         -0.5286    1.8543    0.9071 H         1 <0>         0.0681
     39 H5         -0.0064   -0.1436   -2.1312 H         1 <0>         0.1244
     40 H6          0.0266   -2.6057   -2.1448 H         1 <0>         0.1245
     41 H7          0.0491   -2.6289    2.1200 H         1 <0>         0.1247
     42 H8          0.0245   -0.1667    2.1335 H         1 <0>         0.1245
     43 H9         -0.4447   -4.6501    0.8693 H         1 <0>         0.0784
     44 H10        -0.4546   -4.6404   -0.9106 H         1 <0>         0.0783
     45 H11         2.1759   -4.1059   -0.0323 H         1 <0>         0.4017
     46 H12         3.9460   -4.5600   -0.0379 H         1 <0>         0.1323
     47 H13         6.2746   -5.3479   -0.0463 H         1 <0>         0.1456
     48 H14         2.5695   -8.6261   -0.0581 H         1 <0>         0.1449
     49 H15         4.2669  -10.3649    0.0187 H         1 <0>         0.4177
     50 H16         7.7602   -7.3684    0.3543 H         1 <0>         0.4222
     51 H17         7.4998   -9.9864   -2.6819 H         1 <0>         0.1521
     52 H18         6.4650   -8.5437   -2.5562 H         1 <0>         0.1423
     53 H19         8.7708   -8.8841   -4.8710 H         1 <0>         0.1458
     54 H20         7.7360   -7.4413   -4.7453 H         1 <0>         0.1459
     55 H21         8.6904   -5.2120   -4.8827 H         1 <0>         0.1423
     56 H22        10.5246   -3.8182   -5.7512 H         1 <0>         0.1440
     57 H23        13.0000   -7.2814   -6.0712 H         1 <0>         0.1444
     58 H24        11.1668   -8.6705   -5.1929 H         1 <0>         0.1424
@<TRIPOS>BOND
     1    1    2 1
     2    1   36 1
     3    1   37 1
     4    1   38 1
     5    2    7 ar
     6    2    3 ar
     7    3    4 ar
     8    3   39 1
     9    4    5 ar
    10    4   40 1
    11    5    6 ar
    12    5    8 1
    13    6    7 ar
    14    6   41 1
    15    7   42 1
    16    8    9 1
    17    8   43 1
    18    8   44 1
    19    9   10 am
    20    9   45 1
    21   10   11 2
    22   10   12 1
    23   12   17 ar
    24   12   13 ar
    25   13   14 ar
    26   13   46 1
    27   14   15 ar
    28   14   47 1
    29   15   23 1
    30   15   16 ar
    31   16   17 ar
    32   16   18 1
    33   17   48 1
    34   18   19 am
    35   18   49 1
    36   19   20 2
    37   19   21 1
    38   21   22 1
    39   21   23 1
    40   21   24 1
    41   23   50 1
    42   24   25 1
    43   24   51 1
    44   24   52 1
    45   25   26 2
    46   25   27 2
    47   25   28 1
    48   28   29 1
    49   28   53 1
    50   28   54 1
    51   29   34 ar
    52   29   30 ar
    53   30   31 ar
    54   30   55 1
    55   31   32 ar
    56   31   56 1
    57   32   33 ar
    58   32   35 1
    59   33   34 ar
    60   33   57 1
    61   34   58 1
@<TRIPOS>MOLECULE
ZINC46773307
   44    46     0     0     0
SMALL
USER_CHARGES

@<TRIPOS>ATOM
      1 C1          0.9718    1.3124   -0.2022 C.3       1 <0>        -0.1303
      2 C2          0.6647   -0.1620   -0.1506 C.2       1 <0>         0.1313
      3 C3          0.2998   -0.8090   -1.2829 C.2       1 <0>        -0.2430
      4 C4          0.0192   -2.1970   -1.1918 C.2       1 <0>         0.3856
      5 O1         -0.3151   -2.8443   -2.1718 O.2       1 <0>        -0.4391
      6 C5          0.1485   -2.8234    0.1332 C.2       1 <0>        -0.0349
      7 N1          0.5128   -2.0763    1.1541 N.2       1 <0>        -0.1693
      8 N2          0.7627   -0.8254    1.0278 N.pl3     1 <0>        -0.2577
      9 C6          1.1496   -0.1071    2.1642 C.ar      1 <0>         0.1079
     10 C7          0.3772   -0.1605    3.3176 C.ar      1 <0>        -0.0809
     11 C8          0.7617    0.5490    4.4380 C.ar      1 <0>        -0.0937
     12 C9          1.9154    1.3133    4.4125 C.ar      1 <0>        -0.0188
     13 C10         2.6867    1.3687    3.2646 C.ar      1 <0>        -0.0923
     14 C11         2.3102    0.6562    2.1433 C.ar      1 <0>        -0.0930
     15 Cl1         2.3956    2.2046    5.8228 Cl        1 <0>        -0.0459
     16 C12        -0.1257   -4.2629    0.3147 C.2       1 <0>         0.6001
     17 O2         -0.4618   -4.9423   -0.6359 O.2       1 <0>        -0.4700
     18 N3         -0.0033   -4.8238    1.5340 N.am      1 <0>        -0.5425
     19 N4         -0.2635   -6.1896    1.7062 N.pl3     1 <0>        -0.4531
     20 C13        -0.1411   -6.7505    2.9256 C.2       1 <0>         0.5528
     21 S1         -0.4590   -8.4195    3.1359 S.2       1 <0>        -0.5469
     22 N5          0.2315   -5.9974    3.9794 N.pl3     1 <0>        -0.6295
     23 C14         0.4178   -6.5915    5.2333 C.ar      1 <0>         0.1395
     24 C15         1.0096   -7.8440    5.3286 C.ar      1 <0>        -0.0528
     25 C16         1.1923   -8.4280    6.5668 C.ar      1 <0>        -0.0931
     26 C17         0.7861   -7.7664    7.7125 C.ar      1 <0>        -0.0182
     27 C18         0.1960   -6.5182    7.6214 C.ar      1 <0>        -0.0965
     28 C19         0.0159   -5.9265    6.3853 C.ar      1 <0>        -0.0323
     29 Cl2        -0.7174   -4.3571    6.2717 Cl        1 <0>        -0.0538
     30 Cl3         1.0170   -8.5042    9.2669 Cl        1 <0>        -0.0501
     31 H1          2.0455    1.4559   -0.3233 H         1 <0>         0.0981
     32 H2          0.4476    1.7635   -1.0447 H         1 <0>         0.1024
     33 H3          0.6444    1.7844    0.7242 H         1 <0>         0.0883
     34 H4          0.2244   -0.2855   -2.2246 H         1 <0>         0.1751
     35 H5         -0.5235   -0.7561    3.3379 H         1 <0>         0.1431
     36 H6          0.1615    0.5079    5.3350 H         1 <0>         0.1493
     37 H7          3.5860    1.9664    3.2472 H         1 <0>         0.1513
     38 H8          2.9149    0.6959    1.2494 H         1 <0>         0.1469
     39 H9          0.2649   -4.2818    2.2925 H         1 <0>         0.4248
     40 H10        -0.5316   -6.7316    0.9477 H         1 <0>         0.4649
     41 H11         0.3706   -5.0438    3.8690 H         1 <0>         0.4044
     42 H12         1.3266   -8.3612    4.4351 H         1 <0>         0.1714
     43 H13         1.6523   -9.4023    6.6410 H         1 <0>         0.1494
     44 H14        -0.1204   -6.0042    8.5170 H         1 <0>         0.1509
@<TRIPOS>BOND
     1    1    2 1
     2    1   31 1
     3    1   32 1
     4    1   33 1
     5    2    8 1
     6    2    3 2
     7    3    4 1
     8    3   34 1
     9    4    5 2
    10    4    6 1
    11    6    7 2
    12    6   16 1
    13    7    8 1
    14    8    9 1
    15    9   14 ar
    16    9   10 ar
    17   10   11 ar
    18   10   35 1
    19   11   12 ar
    20   11   36 1
    21   12   13 ar
    22   12   15 1
    23   13   14 ar
    24   13   37 1
    25   14   38 1
    26   16   17 2
    27   16   18 am
    28   18   19 1
    29   18   39 1
    30   19   20 1
    31   19   40 1
    32   20   21 2
    33   20   22 1
    34   22   23 1
    35   22   41 1
    36   23   28 ar
    37   23   24 ar
    38   24   25 ar
    39   24   42 1
    40   25   26 ar
    41   25   43 1
    42   26   27 ar
    43   26   30 1
    44   27   28 ar
    45   27   44 1
    46   28   29 1
@<TRIPOS>MOLECULE
ZINC02211955
   56    60     0     0     0
SMALL
USER_CHARGES
2-(amino-isopropyl-BLAHyl)sulfanyl-N-(1-naphthyl)acetamide
@<TRIPOS>ATOM
      1 C1          6.4908   -2.4148    9.3526 C.3       1 <0>        -0.1468
      2 C2          5.7755   -2.5062    8.0032 C.3       1 <0>        -0.0881
      3 C3          5.1855   -3.9075    7.8326 C.3       1 <0>        -0.1498
      4 C4          4.6514   -1.4697    7.9505 C.3       1 <0>         0.0956
      5 H1          5.0741   -0.4718    8.0676 H         1 <0>         0.0670
      6 C5          3.9371   -1.5633    6.5990 C.3       1 <0>        -0.1033
      7 C6          2.6833   -0.6944    6.6653 C.2       1 <0>        -0.0666
      8 C7          2.1988   -0.3145    7.8668 C.2       1 <0>        -0.2076
      9 S1          0.7699    0.6639    7.4999 S.3       1 <0>         0.1522
     10 C8          0.8238    0.5614    5.7291 C.ar      1 <0>         0.1614
     11 C9          1.9597   -0.2366    5.4805 C.ar      1 <0>        -0.2537
     12 C10         2.2451   -0.4858    4.1089 C.ar      1 <0>         0.5069
     13 N1          1.4564    0.0279    3.1803 N.ar      1 <0>        -0.6000
     14 C11         0.4003    0.7729    3.4845 C.ar      1 <0>         0.3438
     15 N2          0.0887    1.0420    4.7455 N.ar      1 <0>        -0.4984
     16 S2         -0.6018    1.4224    2.1888 S.3       1 <0>         0.1208
     17 C12         0.2757    0.7602    0.7508 C.3       1 <0>        -0.1585
     18 C13        -0.4227    1.1999   -0.5101 C.2       1 <0>         0.5322
     19 O1         -1.4160    1.8927   -0.4432 O.2       1 <0>        -0.4987
     20 N3          0.0565    0.8232   -1.7122 N.am      1 <0>        -0.6613
     21 C14        -0.6386    1.1563   -2.8763 C.ar      1 <0>         0.1448
     22 C15        -1.3203    2.3510   -2.9612 C.ar      1 <0>        -0.1167
     23 C16        -2.0163    2.6926   -4.1170 C.ar      1 <0>        -0.0957
     24 C17        -2.0432    1.8592   -5.1935 C.ar      1 <0>        -0.1179
     25 C18        -1.3608    0.6318   -5.1478 C.ar      1 <0>        -0.0377
     26 C19        -0.6446    0.2753   -3.9785 C.ar      1 <0>        -0.0607
     27 C20         0.0331   -0.9531   -3.9327 C.ar      1 <0>        -0.1119
     28 C21         0.0015   -1.7810   -5.0132 C.ar      1 <0>        -0.1118
     29 C22        -0.6990   -1.4294   -6.1654 C.ar      1 <0>        -0.1158
     30 C23        -1.3710   -0.2485   -6.2437 C.ar      1 <0>        -0.1018
     31 N4          3.3361   -1.2567    3.7509 N.pl3     1 <0>        -0.8276
     32 C24         2.7735   -0.6647    9.2045 C.3       1 <0>         0.1454
     33 O2          3.7277   -1.7211    9.0132 O.3       1 <0>        -0.3558
     34 H2          6.9111   -1.4164    9.4741 H         1 <0>         0.0532
     35 H3          5.7792   -2.6095   10.1549 H         1 <0>         0.0659
     36 H4          7.2917   -3.1532    9.3901 H         1 <0>         0.0571
     37 H5          6.4871   -2.3115    7.2008 H         1 <0>         0.0830
     38 H6          4.6760   -3.9727    6.8713 H         1 <0>         0.0534
     39 H7          5.9864   -4.6460    7.8701 H         1 <0>         0.0569
     40 H8          4.4739   -4.1023    8.6350 H         1 <0>         0.0664
     41 H9          3.6579   -2.5982    6.4009 H         1 <0>         0.0975
     42 H10         4.5945   -1.2016    5.8084 H         1 <0>         0.0859
     43 H11         0.2848   -0.3286    0.8004 H         1 <0>         0.1301
     44 H12         1.3002    1.1324    0.7474 H         1 <0>         0.1301
     45 H13         0.8842    0.3207   -1.7686 H         1 <0>         0.4134
     46 H14        -1.3147    3.0298   -2.1212 H         1 <0>         0.1425
     47 H15        -2.5433    3.6342   -4.1609 H         1 <0>         0.1293
     48 H16        -2.5885    2.1416   -6.0820 H         1 <0>         0.1298
     49 H17         0.5801   -1.2384   -3.0463 H         1 <0>         0.1210
     50 H18         0.5272   -2.7237   -4.9769 H         1 <0>         0.1243
     51 H19        -0.7085   -2.1039   -7.0088 H         1 <0>         0.1251
     52 H20        -1.9091    0.0112   -7.1434 H         1 <0>         0.1304
     53 H21         3.5751   -1.3544    2.8159 H         1 <0>         0.4095
     54 H22         3.8623   -1.6997    4.4348 H         1 <0>         0.4139
     55 H23         1.9790   -1.0018    9.8703 H         1 <0>         0.1168
     56 H24         3.2692    0.2067    9.6324 H         1 <0>         0.0804
@<TRIPOS>BOND
     1    1    2 1
     2    1   34 1
     3    1   35 1
     4    1   36 1
     5    2    3 1
     6    2    4 1
     7    2   37 1
     8    3   38 1
     9    3   39 1
    10    3   40 1
    11    4    5 1
    12    4   33 1
    13    4    6 1
    14    6    7 1
    15    6   41 1
    16    6   42 1
    17    7   11 1
    18    7    8 2
    19    8    9 1
    20    8   32 1
    21    9   10 1
    22   10   15 ar
    23   10   11 ar
    24   11   12 ar
    25   12   13 ar
    26   12   31 1
    27   13   14 ar
    28   14   15 ar
    29   14   16 1
    30   16   17 1
    31   17   18 1
    32   17   43 1
    33   17   44 1
    34   18   19 2
    35   18   20 am
    36   20   21 1
    37   20   45 1
    38   21   26 ar
    39   21   22 ar
    40   22   23 ar
    41   22   46 1
    42   23   24 ar
    43   23   47 1
    44   24   25 ar
    45   24   48 1
    46   25   30 ar
    47   25   26 ar
    48   26   27 ar
    49   27   28 ar
    50   27   49 1
    51   28   29 ar
    52   28   50 1
    53   29   30 ar
    54   29   51 1
    55   30   52 1
    56   31   53 1
    57   31   54 1
    58   32   33 1
    59   32   55 1
    60   32   56 1
@<TRIPOS>MOLECULE
ZINC14360857
   64    67     0     0     0
SMALL
USER_CHARGES
1-[3-[(4-chlorophenyl)sulfamoyl]-4-(1-piperidyl)phenyl]-3-cyclohexyl-thiourea
@<TRIPOS>ATOM
      1 C1          4.0761    2.6564   -7.7362 C.ar      1 <0>        -0.1555
      2 C2          5.1679    2.7033   -6.8916 C.ar      1 <0>        -0.0784
      3 C3          6.4438    2.8213   -7.4141 C.ar      1 <0>        -0.0505
      4 C4          6.6302    2.8860   -8.7838 C.ar      1 <0>        -0.0830
      5 C5          5.5425    2.8334   -9.6332 C.ar      1 <0>        -0.1194
      6 C6          4.2606    2.7154   -9.1116 C.ar      1 <0>         0.1750
      7 N1          3.1583    2.6618   -9.9687 N.pl3     1 <0>        -1.0496
      8 S1          1.9741    1.5302   -9.7249 S.o2      1 <0>         2.7020
      9 O1          2.6343    0.2876   -9.5267 O.2       1 <0>        -0.9430
     10 O2          1.0089    1.7251  -10.7494 O.2       1 <0>        -0.9288
     11 C7          1.1799    1.9268   -8.2028 C.ar      1 <0>        -0.6532
     12 C8          1.2493    1.0496   -7.1386 C.ar      1 <0>         0.0307
     13 C9          0.6240    1.3623   -5.9392 C.ar      1 <0>         0.1084
     14 C10        -0.0763    2.5547   -5.8113 C.ar      1 <0>        -0.0568
     15 C11        -0.1411    3.4345   -6.8732 C.ar      1 <0>        -0.1598
     16 C12         0.4845    3.1218   -8.0733 C.ar      1 <0>         0.1964
     17 N2          0.4145    4.0110   -9.1513 N.pl3     1 <0>        -0.5177
     18 C13         1.0062    5.3088   -8.8023 C.3       1 <0>         0.0557
     19 C14         1.0442    6.2038  -10.0431 C.3       1 <0>        -0.1172
     20 C15        -0.3801    6.3967  -10.5711 C.3       1 <0>        -0.1236
     21 C16        -0.9908    5.0273  -10.8813 C.3       1 <0>        -0.1185
     22 C17        -0.9698    4.1663   -9.6162 C.3       1 <0>         0.0648
     23 N3          0.6945    0.4719   -4.8593 N.pl3     1 <0>        -0.6365
     24 C18         0.5648   -0.8531   -5.0688 C.2       1 <0>         0.5505
     25 S2          0.1806   -1.4392   -6.6308 S.2       1 <0>        -0.5964
     26 N4          0.7376   -1.7168   -4.0487 N.pl3     1 <0>        -0.6713
     27 C19         0.5966   -3.1571   -4.2764 C.3       1 <0>         0.1410
     28 C20         0.2197   -3.8465   -2.9635 C.3       1 <0>        -0.1269
     29 C21         0.0724   -5.3507   -3.2014 C.3       1 <0>        -0.1145
     30 C22         1.3978   -5.9183   -3.7133 C.3       1 <0>        -0.1239
     31 C23         1.7747   -5.2289   -5.0261 C.3       1 <0>        -0.1152
     32 C24         1.9220   -3.7247   -4.7883 C.3       1 <0>        -0.1291
     33 Cl1         7.8133    2.8878   -6.3493 Cl        1 <0>        -0.0674
     34 H1          3.0801    2.5695   -7.3277 H         1 <0>         0.1374
     35 H2          5.0254    2.6523   -5.8223 H         1 <0>         0.1362
     36 H3          7.6272    2.9775   -9.1889 H         1 <0>         0.1407
     37 H4          5.6885    2.8836  -10.7021 H         1 <0>         0.1414
     38 H5          3.0867    3.2875  -10.7065 H         1 <0>         0.4296
     39 H6          1.7898    0.1200   -7.2395 H         1 <0>         0.1691
     40 H7         -0.5667    2.7956   -4.8797 H         1 <0>         0.1341
     41 H8         -0.6819    4.3638   -6.7722 H         1 <0>         0.1358
     42 H9          0.4047    5.7860   -8.0286 H         1 <0>         0.0441
     43 H10         2.0203    5.1579   -8.4323 H         1 <0>         0.0803
     44 H11         1.6569    5.7337  -10.8123 H         1 <0>         0.0741
     45 H12         1.4691    7.1726   -9.7802 H         1 <0>         0.0713
     46 H13        -0.3534    6.9979  -11.4799 H         1 <0>         0.0674
     47 H14        -0.9830    6.9019   -9.8165 H         1 <0>         0.0589
     48 H15        -0.4102    4.5386  -11.6637 H         1 <0>         0.0806
     49 H16        -2.0198    5.1554  -11.2172 H         1 <0>         0.0713
     50 H17        -1.3909    3.1856   -9.8373 H         1 <0>         0.0866
     51 H18        -1.5620    4.6490   -8.8388 H         1 <0>         0.0409
     52 H19         0.8367    0.8093   -3.9611 H         1 <0>         0.4087
     53 H20         0.9553   -1.3847   -3.1637 H         1 <0>         0.3983
     54 H21        -0.1841   -3.3332   -5.0164 H         1 <0>         0.1191
     55 H22         1.0003   -3.6704   -2.2235 H         1 <0>         0.0676
     56 H23        -0.7246   -3.4422   -2.5989 H         1 <0>         0.0690
     57 H24        -0.1961   -5.8419   -2.2661 H         1 <0>         0.0695
     58 H25        -0.7082   -5.5269   -3.9414 H         1 <0>         0.0693
     59 H26         1.2929   -6.9899   -3.8827 H         1 <0>         0.0667
     60 H27         2.1785   -5.7422   -2.9733 H         1 <0>         0.0618
     61 H28         0.9941   -5.4050   -5.7662 H         1 <0>         0.0703
     62 H29         2.7190   -5.6332   -5.3908 H         1 <0>         0.0686
     63 H30         2.1905   -3.2335   -5.7236 H         1 <0>         0.0827
     64 H31         2.7026   -3.5485   -4.0483 H         1 <0>         0.0603
@<TRIPOS>BOND
     1    1    6 ar
     2    1    2 ar
     3    1   34 1
     4    2    3 ar
     5    2   35 1
     6    3    4 ar
     7    3   33 1
     8    4    5 ar
     9    4   36 1
    10    5    6 ar
    11    5   37 1
    12    6    7 1
    13    7    8 1
    14    7   38 1
    15    8    9 2
    16    8   10 2
    17    8   11 1
    18   11   16 ar
    19   11   12 ar
    20   12   13 ar
    21   12   39 1
    22   13   14 ar
    23   13   23 1
    24   14   15 ar
    25   14   40 1
    26   15   16 ar
    27   15   41 1
    28   16   17 1
    29   17   22 1
    30   17   18 1
    31   18   19 1
    32   18   42 1
    33   18   43 1
    34   19   20 1
    35   19   44 1
    36   19   45 1
    37   20   21 1
    38   20   46 1
    39   20   47 1
    40   21   22 1
    41   21   48 1
    42   21   49 1
    43   22   50 1
    44   22   51 1
    45   23   24 1
    46   23   52 1
    47   24   25 2
    48   24   26 1
    49   26   27 1
    50   26   53 1
    51   27   32 1
    52   27   28 1
    53   27   54 1
    54   28   29 1
    55   28   55 1
    56   28   56 1
    57   29   30 1
    58   29   57 1
    59   29   58 1
    60   30   31 1
    61   30   59 1
    62   30   60 1
    63   31   32 1
    64   31   61 1
    65   31   62 1
    66   32   63 1
    67   32   64 1
@<TRIPOS>MOLECULE
ZINC24901830
   59    61     0     0     0
SMALL
USER_CHARGES
2-[5-(2-amino-2-oxo-ethyl)-4-methyl-thiazol-2-yl]sulfanyl-N-[(6R)-3-cyano-6-(1,1-dimethylpropyl)-4,5,6,7-tetrahydrobenzothiophen-2-yl]acetamide
@<TRIPOS>ATOM
      1 C1          0.8682  -16.5412   -2.4217 C.3       1 <0>        -0.1590
      2 C2          1.1401  -15.2081   -1.7217 C.3       1 <0>        -0.1173
      3 C3          0.3122  -15.1281   -0.4376 C.3       1 <0>        -0.0571
      4 C4          0.6995  -16.2803    0.4915 C.3       1 <0>        -0.1489
      5 C5         -1.1750  -15.2290   -0.7825 C.3       1 <0>        -0.1525
      6 C6          0.5841  -13.7951    0.2623 C.3       1 <0>        -0.0703
      7 H1          1.6554  -13.7296    0.5030 H         1 <0>         0.0777
      8 C7         -0.2434  -13.7123    1.5482 C.3       1 <0>        -0.1188
      9 C8          0.2016  -12.5058    2.3768 C.3       1 <0>        -0.0627
     10 C9          0.1763  -11.2664    1.4908 C.2       1 <0>        -0.0600
     11 C10         0.1668  -11.3742    0.1436 C.2       1 <0>        -0.2015
     12 S1          0.1375   -9.7041   -0.4430 S.3       1 <0>         0.2509
     13 C11         0.1385   -8.8737    1.0778 C.2       1 <0>         0.0946
     14 C12         0.1673   -9.9071    2.0023 C.2       1 <0>        -0.1287
     15 C13         0.1836   -9.6435    3.4097 C.1       1 <0>         0.2684
     16 N1          0.1965   -9.4344    4.5262 N.1       1 <0>        -0.4248
     17 N2          0.1209   -7.5060    1.3135 N.am      1 <0>        -0.6281
     18 C14         0.0992   -6.6439    0.2777 C.2       1 <0>         0.5330
     19 O1          0.0951   -7.0632   -0.8603 O.2       1 <0>        -0.4835
     20 C15         0.0801   -5.1589    0.5336 C.3       1 <0>        -0.1556
     21 S2          0.0532   -4.2748   -1.0455 S.3       1 <0>         0.1187
     22 C16         0.0344   -2.6114   -0.4647 C.2       1 <0>         0.0216
     23 N3          0.0399   -2.1668    0.7782 N.2       1 <0>        -0.5059
     24 C17         0.0293   -0.8734    1.0403 C.2       1 <0>         0.0812
     25 C18         0.0021   -0.0041    0.0020 C.2       1 <0>        -0.1780
     26 S3          0.0050   -1.1363   -1.3803 S.3       1 <0>         0.1299
     27 C19        -0.0184    1.5028    0.0103 C.3       1 <0>        -0.0533
     28 C20         1.3954    2.0244   -0.0004 C.2       1 <0>         0.5163
     29 O2          2.3278    1.2489   -0.0135 O.2       1 <0>        -0.5370
     30 N4          1.6237    3.3527    0.0046 N.am      1 <0>        -0.8784
     31 C21         0.0428   -0.3751    2.4625 C.3       1 <0>        -0.0816
     32 C22         0.1798  -12.6368   -0.6615 C.3       1 <0>        -0.0374
     33 H2          1.4635  -16.5986   -3.3449 H         1 <0>         0.0518
     34 H3         -0.2010  -16.6137   -2.6697 H         1 <0>         0.0575
     35 H4          1.1467  -17.3696   -1.7537 H         1 <0>         0.0568
     36 H5          2.2093  -15.1356   -1.4737 H         1 <0>         0.0620
     37 H6          0.8617  -14.3797   -2.3897 H         1 <0>         0.0647
     38 H7          0.1042  -16.2228    1.4147 H         1 <0>         0.0587
     39 H8          1.7687  -16.2078    0.7395 H         1 <0>         0.0548
     40 H9          0.5040  -17.2387   -0.0117 H         1 <0>         0.0594
     41 H10        -1.7702  -15.1715    0.1408 H         1 <0>         0.0579
     42 H11        -1.3705  -16.1874   -1.2857 H         1 <0>         0.0587
     43 H12        -1.4535  -14.4006   -1.4505 H         1 <0>         0.0590
     44 H13        -1.3079  -13.6044    1.2929 H         1 <0>         0.0708
     45 H14        -0.0988  -14.6301    2.1370 H         1 <0>         0.0767
     46 H15        -0.4843  -12.3712    3.2261 H         1 <0>         0.0743
     47 H16         1.2215  -12.6750    2.7525 H         1 <0>         0.0797
     48 H17         0.1247   -7.1257    2.3457 H         1 <0>         0.4520
     49 H18        -0.8167   -4.8985    1.1149 H         1 <0>         0.1368
     50 H19         0.9793   -4.8726    1.0988 H         1 <0>         0.1368
     51 H20        -0.5504    1.8672   -0.8809 H         1 <0>         0.1123
     52 H21        -0.5333    1.8575    0.9153 H         1 <0>         0.1209
     53 H22         2.6557    3.7334   -0.0032 H         1 <0>         0.4257
     54 H23         0.7780    4.0561    0.0165 H         1 <0>         0.4215
     55 H24         0.0309    0.7248    2.4657 H         1 <0>         0.0711
     56 H25         0.9517   -0.7334    2.9679 H         1 <0>         0.0769
     57 H26        -0.8443   -0.7530    2.9918 H         1 <0>         0.0758
     58 H27         0.9064  -12.5523   -1.4831 H         1 <0>         0.0844
     59 H28        -0.8209  -12.8300   -1.0754 H         1 <0>         0.0911
@<TRIPOS>BOND
     1    1    2 1
     2    1   33 1
     3    1   34 1
     4    1   35 1
     5    2    3 1
     6    2   36 1
     7    2   37 1
     8    3    4 1
     9    3    5 1
    10    3    6 1
    11    4   38 1
    12    4   39 1
    13    4   40 1
    14    5   41 1
    15    5   42 1
    16    5   43 1
    17    6    7 1
    18    6   32 1
    19    6    8 1
    20    8    9 1
    21    8   44 1
    22    8   45 1
    23    9   10 1
    24    9   46 1
    25    9   47 1
    26   10   14 1
    27   10   11 2
    28   11   12 1
    29   11   32 1
    30   12   13 1
    31   13   14 2
    32   13   17 1
    33   14   15 1
    34   15   16 3
    35   17   18 am
    36   17   48 1
    37   18   19 2
    38   18   20 1
    39   20   21 1
    40   20   49 1
    41   20   50 1
    42   21   22 1
    43   22   26 1
    44   22   23 2
    45   23   24 1
    46   24   25 2
    47   24   31 1
    48   25   26 1
    49   25   27 1
    50   27   28 1
    51   27   51 1
    52   27   52 1
    53   28   29 2
    54   28   30 am
    55   30   53 1
    56   30   54 1
    57   31   55 1
    58   31   56 1
    59   31   57 1
    60   32   58 1
    61   32   59 1
@<TRIPOS>MOLECULE
ZINC36568476
   51    53     0     0     0
SMALL
USER_CHARGES

@<TRIPOS>ATOM
      1 C1          1.5165    1.4606    0.6796 C.3       1 <0>        -0.1524
      2 C2          1.2970   -0.0499    0.5753 C.3       1 <0>         0.0466
      3 O1          1.7023   -0.5020   -0.7183 O.3       1 <0>        -0.2739
      4 C3          1.5718   -1.8274   -0.9763 C.ar      1 <0>         0.2133
      5 C4          1.0589   -2.6782   -0.0084 C.ar      1 <0>        -0.2101
      6 C5          0.9260   -4.0268   -0.2722 C.ar      1 <0>        -0.0160
      7 C6          1.3030   -4.5411   -1.5031 C.ar      1 <0>        -0.1401
      8 C7          1.8147   -3.7100   -2.4766 C.ar      1 <0>        -0.0215
      9 C8          1.9493   -2.3421   -2.2243 C.ar      1 <0>        -0.1715
     10 C9          2.4902   -1.4461   -3.2630 C.2       1 <0>         0.5354
     11 O2          2.6097   -0.2574   -3.0383 O.2       1 <0>        -0.3753
     12 N1          2.8520   -1.9450   -4.4616 N.am      1 <0>        -0.6412
     13 C10         3.3463   -1.1261   -5.4110 C.2       1 <0>         0.5082
     14 S1          3.5147    0.5480   -5.0945 S.2       1 <0>        -0.4735
     15 N2          3.7082   -1.6250   -6.6096 N.pl3     1 <0>        -0.6161
     16 C11         4.1644   -0.7668   -7.6156 C.ar      1 <0>         0.1331
     17 C12         3.5686    0.4760   -7.7926 C.ar      1 <0>        -0.0810
     18 C13         4.0186    1.3240   -8.7859 C.ar      1 <0>        -0.0989
     19 C14         5.0620    0.9397   -9.6063 C.ar      1 <0>        -0.1071
     20 C15         5.6615   -0.3015   -9.4348 C.ar      1 <0>         0.1440
     21 C16         5.2159   -1.1533   -8.4340 C.ar      1 <0>        -0.1133
     22 C17         5.8685   -2.4979   -8.2408 C.3       1 <0>        -0.1179
     23 N3          6.7174   -0.6903  -10.2666 N.am      1 <0>        -0.6668
     24 C18         7.5942    0.2289  -10.7167 C.2       1 <0>         0.5432
     25 O3          7.4195    1.4041  -10.4730 O.2       1 <0>        -0.5145
     26 C19         8.7919   -0.2034  -11.5227 C.3       1 <0>        -0.1989
     27 C20        10.1702   -0.0551  -10.8752 C.3       1 <0>        -0.1505
     28 C21         9.7502    0.8875  -12.0048 C.3       1 <0>        -0.1444
     29 Br1         1.1152   -6.3909   -1.8480 Br        1 <0>        -0.0373
     30 H1          2.5726    1.6855    0.5306 H         1 <0>         0.0703
     31 H2          0.9259    1.9672   -0.0838 H         1 <0>         0.0703
     32 H3          1.2073    1.8054    1.6663 H         1 <0>         0.0805
     33 H4          1.8875   -0.5565    1.3387 H         1 <0>         0.0672
     34 H5          0.2409   -0.2748    0.7244 H         1 <0>         0.0674
     35 H6          0.7633   -2.2852    0.9531 H         1 <0>         0.1491
     36 H7          0.5264   -4.6851    0.4851 H         1 <0>         0.1446
     37 H8          2.1075   -4.1147   -3.4342 H         1 <0>         0.1374
     38 H9          2.7566   -2.8935   -4.6409 H         1 <0>         0.4064
     39 H10         3.6522   -2.5792   -6.7747 H         1 <0>         0.4061
     40 H11         2.7527    0.7791   -7.1532 H         1 <0>         0.1499
     41 H12         3.5537    2.2893   -8.9217 H         1 <0>         0.1334
     42 H13         5.4115    1.6050  -10.3819 H         1 <0>         0.1427
     43 H14         5.3584   -3.2407   -8.8540 H         1 <0>         0.0737
     44 H15         6.9158   -2.4394   -8.5370 H         1 <0>         0.0727
     45 H16         5.8032   -2.7860   -7.1916 H         1 <0>         0.0652
     46 H17         6.8182   -1.6213  -10.5193 H         1 <0>         0.4105
     47 H18         8.6330   -1.0595  -12.1785 H         1 <0>         0.1269
     48 H19        10.2106    0.3552   -9.8662 H         1 <0>         0.1008
     49 H20        10.9183   -0.8138  -11.1048 H         1 <0>         0.1073
     50 H21        10.2221    0.7489  -12.9776 H         1 <0>         0.1062
     51 H22         9.5144    1.9179  -11.7390 H         1 <0>         0.1101
@<TRIPOS>BOND
     1    1    2 1
     2    1   30 1
     3    1   31 1
     4    1   32 1
     5    2    3 1
     6    2   33 1
     7    2   34 1
     8    3    4 1
     9    4    9 ar
    10    4    5 ar
    11    5    6 ar
    12    5   35 1
    13    6    7 ar
    14    6   36 1
    15    7    8 ar
    16    7   29 1
    17    8    9 ar
    18    8   37 1
    19    9   10 1
    20   10   11 2
    21   10   12 am
    22   12   13 1
    23   12   38 1
    24   13   14 2
    25   13   15 1
    26   15   16 1
    27   15   39 1
    28   16   21 ar
    29   16   17 ar
    30   17   18 ar
    31   17   40 1
    32   18   19 ar
    33   18   41 1
    34   19   20 ar
    35   19   42 1
    36   20   21 ar
    37   20   23 1
    38   21   22 1
    39   22   43 1
    40   22   44 1
    41   22   45 1
    42   23   24 am
    43   23   46 1
    44   24   25 2
    45   24   26 1
    46   26   28 1
    47   26   27 1
    48   26   47 1
    49   27   28 1
    50   27   48 1
    51   27   49 1
    52   28   50 1
    53   28   51 1
@<TRIPOS>MOLECULE
ZINC59238626
   52    54     0     0     0
SMALL
USER_CHARGES

@<TRIPOS>ATOM
      1 C1         -0.0424    1.7920    0.3822 C.3       1 <0>        -0.1363
      2 C2          0.0591    0.3093    0.1325 C.2       1 <0>         0.1816
      3 C3         -1.0673   -0.4120   -0.0483 C.2       1 <0>        -0.2575
      4 C4         -0.9202   -1.8995   -0.2971 C.3       1 <0>         0.2278
      5 H1         -1.3885   -2.1280   -1.2544 H         1 <0>         0.1037
      6 N1          0.4496   -2.4396   -0.3213 N.pl3     1 <0>        -0.6444
      7 C5          1.4774   -1.5905   -0.1236 C.2       1 <0>         0.5579
      8 S1          3.0754   -2.2043   -0.1491 S.2       1 <0>        -0.5928
      9 N2          1.2896   -0.2816    0.0871 N.pl3     1 <0>        -0.5995
     10 C6         -1.6871   -2.6281    0.7762 C.ar      1 <0>        -0.1303
     11 C7         -1.1728   -2.7087    2.0576 C.ar      1 <0>        -0.0750
     12 C8         -1.8725   -3.3759    3.0434 C.ar      1 <0>        -0.0957
     13 C9         -3.0951   -3.9664    2.7469 C.ar      1 <0>        -0.0680
     14 C10        -3.6090   -3.8830    1.4584 C.ar      1 <0>        -0.1297
     15 C11        -2.9061   -3.2097    0.4789 C.ar      1 <0>        -0.0751
     16 S2         -3.9912   -4.8194    4.0016 S.3       1 <0>        -0.1083
     17 C12        -5.4854   -5.4026    3.1542 C.3       1 <0>        -0.1466
     18 C13        -2.3437    0.2006   -0.0064 C.2       1 <0>         0.6012
     19 O1         -2.9145    0.4900   -1.0424 O.2       1 <0>        -0.5037
     20 N3         -2.9265    0.4631    1.1802 N.am      1 <0>        -0.6403
     21 C14        -4.2103    1.0224    1.2215 C.ar      1 <0>         0.1670
     22 C15        -4.9443    1.1642    0.0528 C.ar      1 <0>        -0.2090
     23 C16        -6.2141    1.7178    0.0963 C.ar      1 <0>         0.1282
     24 C17        -6.7514    2.1302    1.3080 C.ar      1 <0>        -0.0536
     25 C18        -6.0213    1.9898    2.4743 C.ar      1 <0>        -0.1401
     26 C19        -4.7540    1.4317    2.4366 C.ar      1 <0>         0.0715
     27 O2         -4.0387    1.2887    3.5851 O.3       1 <0>        -0.3175
     28 C20        -4.6586    1.7300    4.7947 C.3       1 <0>         0.0275
     29 Cl1        -8.3420    2.8239    1.3594 Cl        1 <0>        -0.0514
     30 O3         -6.9341    1.8576   -1.0490 O.3       1 <0>        -0.3021
     31 C21        -6.3196    1.4125   -2.2600 C.3       1 <0>         0.0261
     32 H2          0.9575    2.2100    0.4994 H         1 <0>         0.0894
     33 H3         -0.5391    2.2696   -0.4624 H         1 <0>         0.1008
     34 H4         -0.6189    1.9689    1.2902 H         1 <0>         0.0969
     35 H5          0.6083   -3.3839   -0.4757 H         1 <0>         0.4485
     36 H6          2.0711    0.2777    0.2190 H         1 <0>         0.4423
     37 H7         -0.2226   -2.2496    2.2872 H         1 <0>         0.1216
     38 H8         -1.4700   -3.4391    4.0436 H         1 <0>         0.1320
     39 H9         -4.5588   -4.3407    1.2244 H         1 <0>         0.1275
     40 H10        -3.3068   -3.1410   -0.5217 H         1 <0>         0.1287
     41 H11        -6.0382   -4.5484    2.7633 H         1 <0>         0.0853
     42 H12        -5.2034   -6.0601    2.3318 H         1 <0>         0.0857
     43 H13        -6.1122   -5.9497    3.8583 H         1 <0>         0.1123
     44 H14        -2.4571    0.2648    2.0055 H         1 <0>         0.4208
     45 H15        -4.5264    0.8438   -0.8901 H         1 <0>         0.2014
     46 H16        -6.4413    2.3117    3.4158 H         1 <0>         0.1494
     47 H17        -5.5822    1.1734    4.9537 H         1 <0>         0.0583
     48 H18        -3.9826    1.5593    5.6326 H         1 <0>         0.1040
     49 H19        -4.8837    2.7939    4.7204 H         1 <0>         0.0584
     50 H20        -6.0944    0.3488   -2.1835 H         1 <0>         0.0570
     51 H21        -6.9991    1.5810   -3.0954 H         1 <0>         0.1029
     52 H22        -5.3965    1.9684   -2.4246 H         1 <0>         0.0610
@<TRIPOS>BOND
     1    1    2 1
     2    1   32 1
     3    1   33 1
     4    1   34 1
     5    2    9 1
     6    2    3 2
     7    3    4 1
     8    3   18 1
     9    4    5 1
    10    4    6 1
    11    4   10 1
    12    6    7 1
    13    6   35 1
    14    7    8 2
    15    7    9 1
    16    9   36 1
    17   10   15 ar
    18   10   11 ar
    19   11   12 ar
    20   11   37 1
    21   12   13 ar
    22   12   38 1
    23   13   14 ar
    24   13   16 1
    25   14   15 ar
    26   14   39 1
    27   15   40 1
    28   16   17 1
    29   17   41 1
    30   17   42 1
    31   17   43 1
    32   18   19 2
    33   18   20 am
    34   20   21 1
    35   20   44 1
    36   21   26 ar
    37   21   22 ar
    38   22   23 ar
    39   22   45 1
    40   23   24 ar
    41   23   30 1
    42   24   25 ar
    43   24   29 1
    44   25   26 ar
    45   25   46 1
    46   26   27 1
    47   27   28 1
    48   28   47 1
    49   28   48 1
    50   28   49 1
    51   30   31 1
    52   31   50 1
    53   31   51 1
    54   31   52 1
@<TRIPOS>MOLECULE
ZINC64871204
   53    57     0     0     0
SMALL
USER_CHARGES

@<TRIPOS>ATOM
      1 C1         -0.0167    1.3779    0.0096 C.ar      1 <0>        -0.1102
      2 C2          1.1711    2.0854    0.0021 C.ar      1 <0>        -0.0769
      3 C3          2.3773    1.4107   -0.0130 C.ar      1 <0>        -0.1384
      4 C4          2.3960    0.0283   -0.0201 C.ar      1 <0>        -0.0587
      5 C5          1.2086   -0.6790   -0.0117 C.ar      1 <0>        -0.1744
      6 C6          0.0021   -0.0041    0.0020 C.ar      1 <0>        -0.0603
      7 C7          1.2291   -2.1858   -0.0204 C.3       1 <0>         0.5081
      8 F1          1.2492   -2.6596    1.2958 F         1 <0>        -0.1725
      9 F2          0.0864   -2.6639   -0.6707 F         1 <0>        -0.1744
     10 F3          2.3706   -2.6328   -0.6944 F         1 <0>        -0.1743
     11 C8          3.6720    2.1819   -0.0222 C.3       1 <0>         0.2516
     12 H1          4.0112    2.3586    0.9984 H         1 <0>         0.1470
     13 N1          3.4949    3.4677   -0.7308 N.3       1 <0>        -0.6847
     14 C9          4.4225    3.4360   -1.8843 C.3       1 <0>         0.2394
     15 H2          3.9044    3.0900   -2.7787 H         1 <0>         0.0716
     16 O1          5.4519    2.4952   -1.5031 O.3       1 <0>        -0.1868
     17 N2          4.7043    1.4389   -0.7828 N.3       1 <0>        -0.4730
     18 C10         5.0163    4.8012   -2.1180 C.ar      1 <0>        -0.0147
     19 C11         5.2032    5.6611   -1.0465 C.ar      1 <0>        -0.1035
     20 C12         5.7453    6.9139   -1.2429 C.ar      1 <0>        -0.0189
     21 C13         6.1053    7.3118   -2.5283 C.ar      1 <0>        -0.1844
     22 C14         5.9154    6.4392   -3.6139 C.ar      1 <0>         0.1952
     23 C15         5.3741    5.1814   -3.3961 C.ar      1 <0>        -0.1450
     24 N3          6.2836    6.8622   -4.8828 N.am      1 <0>        -0.6439
     25 H3          6.1582    6.2710   -5.6415 H         1 <0>         0.4357
     26 C16         6.8122    8.0837   -5.0711 C.2       1 <0>         0.7070
     27 O2          7.1213    8.4163   -6.1988 O.2       1 <0>        -0.5369
     28 N4          7.0129    8.9520   -4.0675 N.am      1 <0>        -0.5526
     29 C17         6.6889    8.6388   -2.7941 C.2       1 <0>         0.5652
     30 O3          6.8743    9.4310   -1.8905 O.2       1 <0>        -0.4846
     31 C18         7.5946   10.2646   -4.3587 C.3       1 <0>         0.1510
     32 C19         6.4921   11.2472   -4.6588 C.ar      1 <0>        -0.1164
     33 C20         6.0448   11.4085   -5.9569 C.ar      1 <0>        -0.0791
     34 C21         5.0337   12.3095   -6.2328 C.ar      1 <0>        -0.1168
     35 C22         4.4693   13.0501   -5.2096 C.ar      1 <0>        -0.0241
     36 C23         4.9173   12.8883   -3.9107 C.ar      1 <0>        -0.1161
     37 C24         5.9246   11.9828   -3.6352 C.ar      1 <0>        -0.0806
     38 Cl1         3.1996   14.1824   -5.5555 Cl        1 <0>        -0.0671
     39 H4         -0.9591    1.9051    0.0259 H         1 <0>         0.1436
     40 H5          1.1565    3.1653    0.0076 H         1 <0>         0.1422
     41 H6          3.3385   -0.4989   -0.0326 H         1 <0>         0.1454
     42 H7         -0.9258   -0.5567    0.0079 H         1 <0>         0.1423
     43 H8          2.5406    3.5832   -1.0373 H         1 <0>         0.3591
     44 H9          4.2804    0.7910   -1.4297 H         1 <0>         0.3462
     45 H10         4.9221    5.3480   -0.0518 H         1 <0>         0.1505
     46 H11         5.8893    7.5816   -0.4063 H         1 <0>         0.1496
     47 H12         5.2292    4.5030   -4.2239 H         1 <0>         0.1407
     48 H13         8.1636   10.6095   -3.4953 H         1 <0>         0.1125
     49 H14         8.2558   10.1857   -5.2216 H         1 <0>         0.1133
     50 H15         6.4858   10.8305   -6.7556 H         1 <0>         0.1406
     51 H16         4.6846   12.4357   -7.2470 H         1 <0>         0.1358
     52 H17         4.4773   13.4664   -3.1116 H         1 <0>         0.1362
     53 H18         6.2712   11.8529   -2.6206 H         1 <0>         0.1397
@<TRIPOS>BOND
     1    1    6 ar
     2    1    2 ar
     3    1   39 1
     4    2    3 ar
     5    2   40 1
     6    3    4 ar
     7    3   11 1
     8    4    5 ar
     9    4   41 1
    10    5    6 ar
    11    5    7 1
    12    6   42 1
    13    7    8 1
    14    7    9 1
    15    7   10 1
    16   11   12 1
    17   11   17 1
    18   11   13 1
    19   13   14 1
    20   13   43 1
    21   14   15 1
    22   14   16 1
    23   14   18 1
    24   16   17 1
    25   17   44 1
    26   18   23 ar
    27   18   19 ar
    28   19   20 ar
    29   19   45 1
    30   20   21 ar
    31   20   46 1
    32   21   29 1
    33   21   22 ar
    34   22   23 ar
    35   22   24 1
    36   23   47 1
    37   24   25 1
    38   24   26 am
    39   26   27 2
    40   26   28 am
    41   28   29 am
    42   28   31 1
    43   29   30 2
    44   31   32 1
    45   31   48 1
    46   31   49 1
    47   32   37 ar
    48   32   33 ar
    49   33   34 ar
    50   33   50 1
    51   34   35 ar
    52   34   51 1
    53   35   36 ar
    54   35   38 1
    55   36   37 ar
    56   36   52 1
    57   37   53 1
@<TRIPOS>MOLECULE
ZINC13507481
   66    69     0     0     0
SMALL
USER_CHARGES
N-[2-[[(1R)-2-(cyclohexylamino)-1-(4-fluorophenyl)-2-oxo-ethyl]-(o-tolyl)amino]-2-oxo-ethyl]furan-2-carboxamide
@<TRIPOS>ATOM
      1 C1         -1.7554    1.5399    3.3056 C.3       1 <0>        -0.1176
      2 C2         -2.3059    2.8205    2.7328 C.ar      1 <0>        -0.0682
      3 C3         -1.9937    4.0312    3.3202 C.ar      1 <0>        -0.1104
      4 C4         -2.5026    5.2060    2.7985 C.ar      1 <0>        -0.1000
      5 C5         -3.3212    5.1739    1.6842 C.ar      1 <0>        -0.1150
      6 C6         -3.6332    3.9673    1.0894 C.ar      1 <0>        -0.1087
      7 C7         -3.1236    2.7853    1.6111 C.ar      1 <0>         0.1153
      8 N1         -3.4382    1.5610    1.0111 N.am      1 <0>        -0.5456
      9 C8         -2.5220    0.9671    0.0342 C.3       1 <0>         0.1812
     10 H1         -2.2679   -0.0466    0.3439 H         1 <0>         0.1151
     11 C9         -1.2668    1.7972   -0.0465 C.ar      1 <0>        -0.1160
     12 C10        -0.0466    1.2383    0.2852 C.ar      1 <0>        -0.0678
     13 C11         1.1058    1.9970    0.2064 C.ar      1 <0>        -0.1535
     14 C12         1.0373    3.3189   -0.1997 C.ar      1 <0>         0.1170
     15 C13        -0.1860    3.8791   -0.5266 C.ar      1 <0>        -0.1501
     16 C14        -1.3371    3.1185   -0.4471 C.ar      1 <0>        -0.0556
     17 F1          2.1633    4.0614   -0.2775 F         1 <0>        -0.1352
     18 C15        -3.1860    0.9277   -1.3180 C.2       1 <0>         0.5150
     19 O1         -4.3135    1.3537   -1.4525 O.2       1 <0>        -0.5157
     20 N2         -2.5269    0.4190   -2.3778 N.am      1 <0>        -0.7213
     21 C16        -3.1724    0.3807   -3.6924 C.3       1 <0>         0.1491
     22 C17        -4.0279   -0.8828   -3.8038 C.3       1 <0>        -0.1287
     23 C18        -4.7021   -0.9228   -5.1767 C.3       1 <0>        -0.1172
     24 C19        -3.6321   -0.9334   -6.2702 C.3       1 <0>        -0.1225
     25 C20        -2.7765    0.3302   -6.1588 C.3       1 <0>        -0.1159
     26 C21        -2.1024    0.3702   -4.7859 C.3       1 <0>        -0.1258
     27 C22        -4.5841    0.9281    1.3317 C.2       1 <0>         0.5300
     28 O2         -4.8568   -0.1331    0.8116 O.2       1 <0>        -0.5125
     29 C23        -5.5265    1.5390    2.3366 C.3       1 <0>         0.1082
     30 N3         -6.6892    0.6647    2.5099 N.am      1 <0>        -0.7092
     31 C24        -7.6707    1.0107    3.3663 C.2       1 <0>         0.6087
     32 O3         -7.5912    2.0493    3.9955 O.2       1 <0>        -0.5177
     33 C25        -8.8347    0.1355    3.5399 C.2       1 <0>        -0.0837
     34 C26        -9.8943    0.3648    4.3699 C.2       1 <0>        -0.1136
     35 C27       -10.7687   -0.7226    4.2180 C.2       1 <0>        -0.2259
     36 C28       -10.2115   -1.5575    3.3133 C.2       1 <0>        -0.0007
     37 O4         -9.0488   -1.0344    2.9030 O.3       1 <0>        -0.1630
     38 H2         -0.8387    1.2715    2.7804 H         1 <0>         0.0747
     39 H3         -1.5399    1.6788    4.3650 H         1 <0>         0.0714
     40 H4         -2.4895    0.7432    3.1855 H         1 <0>         0.0639
     41 H5         -1.3550    4.0596    4.1907 H         1 <0>         0.1282
     42 H6         -2.2606    6.1509    3.2623 H         1 <0>         0.1273
     43 H7         -3.7172    6.0934    1.2790 H         1 <0>         0.1290
     44 H8         -4.2725    3.9429    0.2193 H         1 <0>         0.1297
     45 H9          0.0066    0.2071    0.6016 H         1 <0>         0.1375
     46 H10         2.0595    1.5589    0.4613 H         1 <0>         0.1407
     47 H11        -0.2406    4.9102   -0.8432 H         1 <0>         0.1381
     48 H12        -2.2913    3.5551   -0.7023 H         1 <0>         0.1344
     49 H13        -1.6251    0.0783   -2.2702 H         1 <0>         0.3991
     50 H14        -3.8055    1.2599   -3.8120 H         1 <0>         0.0872
     51 H15        -3.3948   -1.7620   -3.6842 H         1 <0>         0.0631
     52 H16        -4.7903   -0.8753   -3.0248 H         1 <0>         0.0689
     53 H17        -5.3352   -0.0436   -5.2963 H         1 <0>         0.0636
     54 H18        -5.3116   -1.8230   -5.2561 H         1 <0>         0.0653
     55 H19        -4.1124   -0.9619   -7.2483 H         1 <0>         0.0643
     56 H20        -2.9989   -1.8125   -6.1506 H         1 <0>         0.0628
     57 H21        -3.4097    1.2094   -6.2784 H         1 <0>         0.0648
     58 H22        -2.0142    0.3227   -6.9378 H         1 <0>         0.0678
     59 H23        -1.4929    1.2704   -4.7065 H         1 <0>         0.0681
     60 H24        -1.4693   -0.5090   -4.6663 H         1 <0>         0.0682
     61 H25        -5.0139    1.6555    3.2914 H         1 <0>         0.1036
     62 H26        -5.8557    2.5148    1.9795 H         1 <0>         0.1049
     63 H27        -6.7526   -0.1631    2.0084 H         1 <0>         0.4172
     64 H28       -10.0326    1.2175    5.0181 H         1 <0>         0.1620
     65 H29       -11.7098   -0.8653    4.7282 H         1 <0>         0.1591
     66 H30       -10.6362   -2.4905    2.9733 H         1 <0>         0.2122
@<TRIPOS>BOND
     1    1    2 1
     2    1   38 1
     3    1   39 1
     4    1   40 1
     5    2    7 ar
     6    2    3 ar
     7    3    4 ar
     8    3   41 1
     9    4    5 ar
    10    4   42 1
    11    5    6 ar
    12    5   43 1
    13    6    7 ar
    14    6   44 1
    15    7    8 1
    16    8    9 1
    17    8   27 am
    18    9   10 1
    19    9   11 1
    20    9   18 1
    21   11   16 ar
    22   11   12 ar
    23   12   13 ar
    24   12   45 1
    25   13   14 ar
    26   13   46 1
    27   14   15 ar
    28   14   17 1
    29   15   16 ar
    30   15   47 1
    31   16   48 1
    32   18   19 2
    33   18   20 am
    34   20   21 1
    35   20   49 1
    36   21   26 1
    37   21   22 1
    38   21   50 1
    39   22   23 1
    40   22   51 1
    41   22   52 1
    42   23   24 1
    43   23   53 1
    44   23   54 1
    45   24   25 1
    46   24   55 1
    47   24   56 1
    48   25   26 1
    49   25   57 1
    50   25   58 1
    51   26   59 1
    52   26   60 1
    53   27   28 2
    54   27   29 1
    55   29   30 1
    56   29   61 1
    57   29   62 1
    58   30   31 am
    59   30   63 1
    60   31   32 2
    61   31   33 1
    62   33   37 1
    63   33   34 2
    64   34   35 1
    65   34   64 1
    66   35   36 2
    67   35   65 1
    68   36   37 1
    69   36   66 1
@<TRIPOS>MOLECULE
ZINC21227910
   72    76     0     0     0
SMALL
USER_CHARGES
(6S,9R)-6-(3,4-diethoxyphenyl)-9-(3,4-dimethoxyphenyl)-5,6,8,9,10,11-hexahydrobenzo[c][1,5]benzodiazepin-7-one
@<TRIPOS>ATOM
      1 C1          4.6798    4.1440   -0.4667 C.3       1 <0>        -0.1534
      2 C2          3.4714    3.2085   -0.5411 C.3       1 <0>         0.0533
      3 O1          2.3241    3.8686   -0.0026 O.3       1 <0>        -0.3059
      4 C3          1.1573    3.1701    0.0061 C.ar      1 <0>         0.1001
      5 C4          1.1178    1.8779   -0.4927 C.ar      1 <0>        -0.1761
      6 C5         -0.0692    1.1694   -0.4835 C.ar      1 <0>        -0.1009
      7 C6         -1.2200    1.7492    0.0174 C.ar      1 <0>        -0.0773
      8 C7         -1.1863    3.0359    0.5217 C.ar      1 <0>        -0.1413
      9 C8          0.0002    3.7516    0.5155 C.ar      1 <0>         0.0977
     10 O2          0.0338    5.0196    1.0058 O.3       1 <0>        -0.3064
     11 C9         -1.1918    5.5519    1.5125 C.3       1 <0>         0.0525
     12 C10        -0.9589    6.9777    2.0163 C.3       1 <0>        -0.1527
     13 C11        -2.5128    0.9747    0.0188 C.3       1 <0>         0.2908
     14 H1         -3.3504    1.5119    0.4877 H         1 <0>         0.0899
     15 C12        -2.8964    0.6827   -1.4116 C.2       1 <0>        -0.3036
     16 C13        -2.8726   -0.5241   -2.0040 C.2       1 <0>         0.2714
     17 C14        -3.2985   -0.6808   -3.4538 C.3       1 <0>        -0.1032
     18 C15        -2.9570    0.5847   -4.2383 C.3       1 <0>        -0.0310
     19 H2         -1.8711    0.7603   -4.2428 H         1 <0>         0.0868
     20 C16        -3.7025    1.7542   -3.5842 C.3       1 <0>        -0.1597
     21 C17        -3.3052    1.8247   -2.1401 C.2       1 <0>         0.4007
     22 O3         -3.3352    2.9006   -1.5755 O.2       1 <0>        -0.4718
     23 C18        -3.4007    0.4331   -5.6705 C.ar      1 <0>        -0.0781
     24 C19        -4.7349    0.2157   -5.9599 C.ar      1 <0>        -0.1097
     25 C20        -5.1469    0.0760   -7.2721 C.ar      1 <0>        -0.1693
     26 C21        -4.2219    0.1543   -8.3008 C.ar      1 <0>         0.0993
     27 C22        -2.8789    0.3737   -8.0095 C.ar      1 <0>         0.1028
     28 C23        -2.4734    0.5176   -6.6923 C.ar      1 <0>        -0.1646
     29 O4         -1.9673    0.4513   -9.0156 O.3       1 <0>        -0.3055
     30 C24        -0.6067    0.6782   -8.6421 C.3       1 <0>         0.0221
     31 O5         -4.6256    0.0176   -9.5922 O.3       1 <0>        -0.3064
     32 C25        -6.0192   -0.2049   -9.8161 C.3       1 <0>         0.0224
     33 N1         -2.4993   -1.6767   -1.3920 N.pl3     1 <0>        -0.6982
     34 C26        -1.3670   -1.8269   -0.6002 C.ar      1 <0>         0.1142
     35 C27        -0.3151   -2.6512   -0.9602 C.ar      1 <0>        -0.1166
     36 C28         0.7617   -2.7914   -0.1011 C.ar      1 <0>        -0.1245
     37 C29         0.7837   -2.1167    1.1059 C.ar      1 <0>        -0.1085
     38 C30        -0.2591   -1.2776    1.4588 C.ar      1 <0>        -0.1242
     39 C31        -1.3274   -1.1183    0.5910 C.ar      1 <0>         0.1744
     40 N2         -2.3419   -0.2005    0.8460 N.pl3     1 <0>        -0.7819
     41 H3          5.5629    3.6358   -0.8812 H         1 <0>         0.0780
     42 H4          4.8707    4.4136    0.5825 H         1 <0>         0.0669
     43 H5          4.4745    5.0551   -1.0479 H         1 <0>         0.0668
     44 H6          3.2805    2.9389   -1.5903 H         1 <0>         0.0589
     45 H7          3.6767    2.2974    0.0401 H         1 <0>         0.0598
     46 H8          2.0143    1.4244   -0.8890 H         1 <0>         0.1286
     47 H9         -0.0986    0.1624   -0.8726 H         1 <0>         0.1203
     48 H10        -2.0857    3.4849    0.9166 H         1 <0>         0.1326
     49 H11        -1.9451    5.5647    0.7110 H         1 <0>         0.0639
     50 H12        -1.5493    4.9238    2.3418 H         1 <0>         0.0589
     51 H13        -1.9023    7.3874    2.4063 H         1 <0>         0.0781
     52 H14        -0.6014    7.6058    1.1870 H         1 <0>         0.0664
     53 H15        -0.2056    6.9649    2.8177 H         1 <0>         0.0657
     54 H16        -2.7713   -1.5367   -3.9003 H         1 <0>         0.0904
     55 H17        -4.3838   -0.8537   -3.5005 H         1 <0>         0.0936
     56 H18        -3.4334    2.6913   -4.0935 H         1 <0>         0.0969
     57 H19        -4.7870    1.5901   -3.6673 H         1 <0>         0.1027
     58 H20        -5.4569    0.1544   -5.1591 H         1 <0>         0.1274
     59 H21        -6.1897   -0.0945   -7.4955 H         1 <0>         0.1364
     60 H22        -1.4323    0.6916   -6.4638 H         1 <0>         0.1351
     61 H23         0.0196    0.7189   -9.5455 H         1 <0>         0.1034
     62 H24        -0.2628   -0.1415   -7.9941 H         1 <0>         0.0557
     63 H25        -0.5297    1.6318   -8.0992 H         1 <0>         0.0564
     64 H26        -6.2070   -0.2967  -10.8961 H         1 <0>         0.1029
     65 H27        -6.5949    0.6421   -9.4145 H         1 <0>         0.0563
     66 H28        -6.3285   -1.1313   -9.3101 H         1 <0>         0.0560
     67 H29        -3.1118   -2.5833   -1.5060 H         1 <0>         0.4257
     68 H30        -0.3338   -3.1795   -1.9020 H         1 <0>         0.1243
     69 H31         1.5882   -3.4303   -0.3751 H         1 <0>         0.1239
     70 H32         1.6200   -2.2449    1.7772 H         1 <0>         0.1221
     71 H33        -0.2403   -0.7520    2.4021 H         1 <0>         0.1231
     72 H34        -3.0203   -0.3803    1.6930 H         1 <0>         0.4153
@<TRIPOS>BOND
     1    1    2 1
     2    1   41 1
     3    1   42 1
     4    1   43 1
     5    2    3 1
     6    2   44 1
     7    2   45 1
     8    3    4 1
     9    4    9 ar
    10    4    5 ar
    11    5    6 ar
    12    5   46 1
    13    6    7 ar
    14    6   47 1
    15    7    8 ar
    16    7   13 1
    17    8    9 ar
    18    8   48 1
    19    9   10 1
    20   10   11 1
    21   11   12 1
    22   11   49 1
    23   11   50 1
    24   12   51 1
    25   12   52 1
    26   12   53 1
    27   13   14 1
    28   13   40 1
    29   13   15 1
    30   15   21 1
    31   15   16 2
    32   16   17 1
    33   16   33 1
    34   17   18 1
    35   17   54 1
    36   17   55 1
    37   18   19 1
    38   18   20 1
    39   18   23 1
    40   20   21 1
    41   20   56 1
    42   20   57 1
    43   21   22 2
    44   23   28 ar
    45   23   24 ar
    46   24   25 ar
    47   24   58 1
    48   25   26 ar
    49   25   59 1
    50   26   27 ar
    51   26   31 1
    52   27   28 ar
    53   27   29 1
    54   28   60 1
    55   29   30 1
    56   30   61 1
    57   30   62 1
    58   30   63 1
    59   31   32 1
    60   32   64 1
    61   32   65 1
    62   32   66 1
    63   33   34 1
    64   33   67 1
    65   34   39 ar
    66   34   35 ar
    67   35   36 ar
    68   35   68 1
    69   36   37 ar
    70   36   69 1
    71   37   38 ar
    72   37   70 1
    73   38   39 ar
    74   38   71 1
    75   39   40 1
    76   40   72 1
@<TRIPOS>MOLECULE
ZINC36066308
   69    73     0     0     0
SMALL
USER_CHARGES

@<TRIPOS>ATOM
      1 C1          0.1686    1.3057   -1.2254 C.3       1 <0>        -0.1509
      2 C2          0.1463   -0.2239   -1.1969 C.3       1 <0>        -0.0938
      3 C3          1.0410   -0.7259   -0.0618 C.3       1 <0>        -0.1457
      4 C4         -1.2868   -0.7089   -0.9694 C.3       1 <0>        -0.1283
      5 C5         -2.1549   -0.3137   -2.1657 C.3       1 <0>         0.1330
      6 N1         -3.5272   -0.7782   -1.9478 N.am      1 <0>        -0.6154
      7 C6         -4.0616   -2.1135   -2.3616 C.3       1 <0>         0.1589
      8 H1         -3.6464   -2.4187   -3.3222 H         1 <0>         0.1219
      9 C7         -5.5286   -1.8371   -2.4763 C.3       1 <0>         0.1013
     10 C8         -5.8741   -0.9777   -3.6785 C.2       1 <0>        -0.1523
     11 C9         -7.1905   -0.8303   -3.6486 C.2       1 <0>        -0.1832
     12 C10        -7.6430   -1.5588   -2.3771 C.3       1 <0>         0.1013
     13 H2         -8.6929   -1.8491   -2.3381 H         1 <0>         0.1558
     14 O1         -6.6530   -2.6683   -2.3092 O.3       1 <0>        -0.3086
     15 C11        -7.1517   -0.5801   -1.2410 C.3       1 <0>        -0.1096
     16 H3         -7.6578   -0.7891   -0.2985 H         1 <0>         0.1277
     17 C12        -5.6725   -0.9585   -1.1692 C.3       1 <0>        -0.1659
     18 H4         -5.5031   -1.5931   -0.2994 H         1 <0>         0.1309
     19 C13        -4.5181   -0.0566   -1.3272 C.2       1 <0>         0.5564
     20 O2         -4.4558    1.1031   -0.9777 O.2       1 <0>        -0.4555
     21 C14        -7.3425    0.8587   -1.6466 C.2       1 <0>         0.5132
     22 O3         -6.3828    1.5942   -1.7421 O.2       1 <0>        -0.4609
     23 N2         -8.5795    1.3282   -1.9031 N.am      1 <0>        -0.6756
     24 C15        -8.7700    2.6886   -2.1718 C.ar      1 <0>         0.1561
     25 C16        -9.7641    3.0909   -3.0539 C.ar      1 <0>        -0.1362
     26 C17        -9.9499    4.4338   -3.3173 C.ar      1 <0>        -0.0904
     27 C18        -9.1465    5.3783   -2.7030 C.ar      1 <0>        -0.0514
     28 C19        -8.1550    4.9801   -1.8235 C.ar      1 <0>        -0.0881
     29 C20        -7.9688    3.6388   -1.5523 C.ar      1 <0>        -0.1081
     30 Cl1        -9.3823    7.0655   -3.0366 Cl        1 <0>        -0.0700
     31 C21        -3.7895   -3.1535   -1.3054 C.2       1 <0>         0.5077
     32 O4         -3.5225   -2.8119   -0.1727 O.2       1 <0>        -0.5147
     33 N3         -3.8429   -4.4630   -1.6195 N.am      1 <0>        -0.7173
     34 C22        -3.5785   -5.4740   -0.5928 C.3       1 <0>         0.1476
     35 C23        -2.0707   -5.7112   -0.4871 C.3       1 <0>        -0.1282
     36 C24        -1.7945   -6.7670    0.5853 C.3       1 <0>        -0.1175
     37 C25        -2.4911   -8.0750    0.2046 C.3       1 <0>        -0.1227
     38 C26        -3.9989   -7.8377    0.0989 C.3       1 <0>        -0.1163
     39 C27        -4.2751   -6.7819   -0.9734 C.3       1 <0>        -0.1260
     40 H5          1.1895    1.6513   -1.3875 H         1 <0>         0.0543
     41 H6         -0.4688    1.6634   -2.0341 H         1 <0>         0.0557
     42 H7         -0.1992    1.6922   -0.2749 H         1 <0>         0.0559
     43 H8          0.5142   -0.6103   -2.1474 H         1 <0>         0.0687
     44 H9          0.6731   -0.3394    0.8887 H         1 <0>         0.0545
     45 H10         1.0251   -1.8156   -0.0415 H         1 <0>         0.0527
     46 H11         2.0619   -0.3803   -0.2239 H         1 <0>         0.0548
     47 H12        -1.2903   -1.7935   -0.8605 H         1 <0>         0.0663
     48 H13        -1.6858   -0.2516   -0.0640 H         1 <0>         0.0678
     49 H14        -2.1514    0.7708   -2.2746 H         1 <0>         0.0900
     50 H15        -1.7560   -0.7711   -3.0710 H         1 <0>         0.0763
     51 H16        -5.1889   -0.5701   -4.4071 H         1 <0>         0.1534
     52 H17        -7.8102   -0.3100   -4.3639 H         1 <0>         0.1582
     53 H18        -9.3378    0.7234   -1.9016 H         1 <0>         0.4094
     54 H19       -10.3912    2.3541   -3.5339 H         1 <0>         0.1348
     55 H20       -10.7228    4.7471   -4.0035 H         1 <0>         0.1372
     56 H21        -7.5291    5.7192   -1.3456 H         1 <0>         0.1365
     57 H22        -7.1978    3.3288   -0.8624 H         1 <0>         0.1453
     58 H23        -4.0565   -4.7362   -2.5255 H         1 <0>         0.4013
     59 H24        -3.9596   -5.1253    0.3671 H         1 <0>         0.0885
     60 H25        -1.6896   -6.0599   -1.4469 H         1 <0>         0.0637
     61 H26        -1.5744   -4.7794   -0.2159 H         1 <0>         0.0666
     62 H27        -0.7203   -6.9361    0.6606 H         1 <0>         0.0653
     63 H28        -2.1756   -6.4184    1.5451 H         1 <0>         0.0643
     64 H29        -2.1100   -8.4236   -0.7553 H         1 <0>         0.0629
     65 H30        -2.2944   -8.8271    0.9685 H         1 <0>         0.0645
     66 H31        -4.4952   -8.7695   -0.1723 H         1 <0>         0.0681
     67 H32        -4.3800   -7.4890    1.0587 H         1 <0>         0.0651
     68 H33        -5.3493   -6.6129   -1.0487 H         1 <0>         0.0704
     69 H34        -3.8940   -7.1305   -1.9333 H         1 <0>         0.0683
@<TRIPOS>BOND
     1    1    2 1
     2    1   40 1
     3    1   41 1
     4    1   42 1
     5    2    3 1
     6    2    4 1
     7    2   43 1
     8    3   44 1
     9    3   45 1
    10    3   46 1
    11    4    5 1
    12    4   47 1
    13    4   48 1
    14    5    6 1
    15    5   49 1
    16    5   50 1
    17    6   19 am
    18    6    7 1
    19    7    8 1
    20    7    9 1
    21    7   31 1
    22    9   14 1
    23    9   17 1
    24    9   10 1
    25   10   11 2
    26   10   51 1
    27   11   12 1
    28   11   52 1
    29   12   13 1
    30   12   14 1
    31   12   15 1
    32   15   16 1
    33   15   17 1
    34   15   21 1
    35   17   18 1
    36   17   19 1
    37   19   20 2
    38   21   22 2
    39   21   23 am
    40   23   24 1
    41   23   53 1
    42   24   29 ar
    43   24   25 ar
    44   25   26 ar
    45   25   54 1
    46   26   27 ar
    47   26   55 1
    48   27   28 ar
    49   27   30 1
    50   28   29 ar
    51   28   56 1
    52   29   57 1
    53   31   32 2
    54   31   33 am
    55   33   34 1
    56   33   58 1
    57   34   39 1
    58   34   35 1
    59   34   59 1
    60   35   36 1
    61   35   60 1
    62   35   61 1
    63   36   37 1
    64   36   62 1
    65   36   63 1
    66   37   38 1
    67   37   64 1
    68   37   65 1
    69   38   39 1
    70   38   66 1
    71   38   67 1
    72   39   68 1
    73   39   69 1
@<TRIPOS>MOLECULE
ZINC38700652
   60    64     0     0     0
SMALL
USER_CHARGES

@<TRIPOS>ATOM
      1 C1         -0.4310    1.5509    0.0504 C.3       1 <0>        -0.1507
      2 C2         -0.3090    0.0260    0.0243 C.3       1 <0>        -0.1236
      3 C3         -1.7039   -0.5985    0.0964 C.3       1 <0>         0.0587
      4 O1         -1.5900   -2.0228    0.0721 O.3       1 <0>        -0.3136
      5 C4         -2.7459   -2.7352    0.1293 C.ar      1 <0>         0.1394
      6 C5         -3.9651   -2.0769    0.2015 C.ar      1 <0>        -0.2075
      7 C6         -5.1385   -2.8033    0.2591 C.ar      1 <0>        -0.0777
      8 C7         -5.0988   -4.1855    0.2449 C.ar      1 <0>        -0.1545
      9 C8         -3.8853   -4.8438    0.1735 C.ar      1 <0>        -0.0639
     10 C9         -2.7090   -4.1217    0.1099 C.ar      1 <0>        -0.1092
     11 C10        -1.3868   -4.8399    0.0257 C.3       1 <0>         0.0894
     12 H1         -0.5801   -4.1079   -0.0110 H         1 <0>         0.1095
     13 C11        -1.3546   -5.6808   -1.2229 C.ar      1 <0>        -0.1097
     14 C12        -1.1472   -5.0721   -2.4482 C.ar      1 <0>        -0.0590
     15 C13        -1.1147   -5.8272   -3.6037 C.ar      1 <0>        -0.1184
     16 C14        -1.2901   -7.2027   -3.5387 C.ar      1 <0>         0.1129
     17 C15        -1.4977   -7.8151   -2.3135 C.ar      1 <0>        -0.1282
     18 C16        -1.5309   -7.0538   -1.1522 C.ar      1 <0>         0.1333
     19 O2         -1.7353   -7.6684    0.0390 O.3       1 <0>        -0.2427
     20 C17        -1.3938   -7.0477    1.1805 C.2       1 <0>         0.4377
     21 C18        -1.2148   -5.7099    1.2390 C.2       1 <0>        -0.2722
     22 C19        -0.8522   -5.1093    2.4873 C.1       1 <0>         0.2741
     23 N1         -0.5646   -4.6328    3.4777 N.1       1 <0>        -0.4441
     24 N2         -1.2231   -7.7946    2.3194 N.pl3     1 <0>        -0.8305
     25 O3         -1.2586   -7.9473   -4.6751 O.3       1 <0>        -0.2764
     26 C20        -2.4105   -8.5078   -5.0969 C.2       1 <0>         0.5501
     27 O4         -3.4540   -8.2558   -4.5261 O.2       1 <0>        -0.4525
     28 C21        -2.4043   -9.4223   -6.2452 C.2       1 <0>        -0.0181
     29 C22        -3.5005  -10.0391   -6.7599 C.2       1 <0>        -0.0491
     30 C23        -3.0222  -10.8444   -7.8827 C.ar      1 <0>        -0.1229
     31 C24        -3.6405  -11.6949   -8.8032 C.ar      1 <0>        -0.0896
     32 C25        -2.8811  -12.3208   -9.7675 C.ar      1 <0>         0.0845
     33 C26        -1.5080  -12.1086   -9.8248 C.ar      1 <0>        -0.1060
     34 C27        -0.8867  -11.2730   -8.9229 C.ar      1 <0>        -0.0793
     35 C28        -1.6327  -10.6301   -7.9420 C.ar      1 <0>         0.0737
     36 O5         -1.3102   -9.7731   -6.9529 O.3       1 <0>        -0.1661
     37 F1         -3.4726  -13.1442  -10.6604 F         1 <0>        -0.1308
     38 C29        -4.9213   -9.9178   -6.2722 C.3       1 <0>        -0.1040
     39 H2          0.5627    1.9958   -0.0009 H         1 <0>         0.0654
     40 H3         -1.0222    1.8827   -0.8032 H         1 <0>         0.0579
     41 H4         -0.9205    1.8605    0.9738 H         1 <0>         0.0574
     42 H5          0.1804   -0.2837   -0.8990 H         1 <0>         0.0744
     43 H6          0.2821   -0.3059    0.8779 H         1 <0>         0.0734
     44 H7         -2.1934   -0.2889    1.0198 H         1 <0>         0.0614
     45 H8         -2.2951   -0.2667   -0.7572 H         1 <0>         0.0631
     46 H9         -3.9966   -0.9974    0.2130 H         1 <0>         0.1277
     47 H10        -6.0878   -2.2913    0.3157 H         1 <0>         0.1247
     48 H11        -6.0174   -4.7517    0.2900 H         1 <0>         0.1240
     49 H12        -3.8569   -5.9234    0.1629 H         1 <0>         0.1220
     50 H13        -1.0106   -4.0021   -2.5009 H         1 <0>         0.1462
     51 H14        -0.9525   -5.3479   -4.5578 H         1 <0>         0.1438
     52 H15        -1.6349   -8.8851   -2.2614 H         1 <0>         0.1439
     53 H16        -1.3491   -8.7560    2.2923 H         1 <0>         0.4116
     54 H17        -0.9766   -7.3611    3.1513 H         1 <0>         0.4259
     55 H18        -4.7068  -11.8607   -8.7588 H         1 <0>         0.1474
     56 H19        -0.9222  -12.6046  -10.5845 H         1 <0>         0.1550
     57 H20         0.1806  -11.1174   -8.9780 H         1 <0>         0.1512
     58 H21        -5.4136   -9.0939   -6.7888 H         1 <0>         0.0877
     59 H22        -5.4558  -10.8456   -6.4758 H         1 <0>         0.0788
     60 H23        -4.9219   -9.7261   -5.1992 H         1 <0>         0.0942
@<TRIPOS>BOND
     1    1    2 1
     2    1   39 1
     3    1   40 1
     4    1   41 1
     5    2    3 1
     6    2   42 1
     7    2   43 1
     8    3    4 1
     9    3   44 1
    10    3   45 1
    11    4    5 1
    12    5   10 ar
    13    5    6 ar
    14    6    7 ar
    15    6   46 1
    16    7    8 ar
    17    7   47 1
    18    8    9 ar
    19    8   48 1
    20    9   10 ar
    21    9   49 1
    22   10   11 1
    23   11   12 1
    24   11   21 1
    25   11   13 1
    26   13   18 ar
    27   13   14 ar
    28   14   15 ar
    29   14   50 1
    30   15   16 ar
    31   15   51 1
    32   16   17 ar
    33   16   25 1
    34   17   18 ar
    35   17   52 1
    36   18   19 1
    37   19   20 1
    38   20   21 2
    39   20   24 1
    40   21   22 1
    41   22   23 3
    42   24   53 1
    43   24   54 1
    44   25   26 1
    45   26   27 2
    46   26   28 1
    47   28   36 1
    48   28   29 2
    49   29   30 1
    50   29   38 1
    51   30   35 ar
    52   30   31 ar
    53   31   32 ar
    54   31   55 1
    55   32   33 ar
    56   32   37 1
    57   33   34 ar
    58   33   56 1
    59   34   35 ar
    60   34   57 1
    61   35   36 1
    62   38   58 1
    63   38   59 1
    64   38   60 1
@<TRIPOS>MOLECULE
ZINC09243650
   62    66     0     0     0
SMALL
USER_CHARGES

@<TRIPOS>ATOM
      1 C1         -0.0187    1.5258    0.0104 C.3       1 <0>        -0.1522
      2 C2          0.0021   -0.0041    0.0020 C.3       1 <0>         0.0549
      3 O1          0.6709   -0.4649   -1.1737 O.3       1 <0>        -0.3060
      4 C3          0.7768   -1.8109   -1.3363 C.ar      1 <0>         0.1181
      5 C4          0.2435   -2.6690   -0.3879 C.ar      1 <0>        -0.1630
      6 C5          0.3516   -4.0370   -0.5549 C.ar      1 <0>        -0.0480
      7 C6          0.9916   -4.5523   -1.6668 C.ar      1 <0>        -0.1143
      8 C7          1.5263   -3.7019   -2.6164 C.ar      1 <0>        -0.1039
      9 C8          1.4160   -2.3297   -2.4582 C.ar      1 <0>         0.0819
     10 O2          1.9361   -1.4917   -3.3945 O.3       1 <0>        -0.4881
     11 C9         -0.2290   -4.9686    0.4775 C.3       1 <0>         0.2602
     12 H1         -0.3576   -4.4441    1.4244 H         1 <0>         0.1016
     13 C10        -1.5506   -5.5075    0.0020 C.2       1 <0>        -0.1754
     14 C11        -2.8249   -5.2432   -0.3867 C.2       1 <0>         0.1049
     15 N1         -3.4022   -6.4456   -0.6800 N.pl3     1 <0>        -0.3743
     16 H2         -4.3149   -6.5652   -0.9860 H         1 <0>         0.4536
     17 N2         -2.5568   -7.3954   -0.4908 N.2       1 <0>        -0.1979
     18 C12        -1.4036   -6.9111   -0.0749 C.2       1 <0>        -0.0341
     19 C13        -0.0294   -7.2455    0.3403 C.2       1 <0>         0.6102
     20 O3          0.4260   -8.3717    0.3877 O.2       1 <0>        -0.5059
     21 N3          0.6501   -6.1295    0.6600 N.am      1 <0>        -0.5936
     22 C14         2.0418   -6.0798    1.1150 C.3       1 <0>         0.1815
     23 C15         2.0828   -6.1814    2.6180 C.ar      1 <0>        -0.1225
     24 C16         2.0263   -5.0361    3.3900 C.ar      1 <0>        -0.0978
     25 C17         2.0639   -5.1293    4.7687 C.ar      1 <0>        -0.1252
     26 C18         2.1575   -6.3679    5.3754 C.ar      1 <0>        -0.0774
     27 C19         2.2131   -7.5132    4.6034 C.ar      1 <0>        -0.1229
     28 C20         2.1711   -7.4203    3.2248 C.ar      1 <0>        -0.0886
     29 C21         2.1995   -6.4695    6.8784 C.3       1 <0>        -0.1179
     30 C22        -3.4636   -3.9116   -0.4748 C.ar      1 <0>        -0.0640
     31 C23        -4.5297   -3.5891    0.3643 C.ar      1 <0>        -0.0690
     32 C24        -5.1215   -2.3446    0.2780 C.ar      1 <0>        -0.0508
     33 C25        -4.6603   -1.4153   -0.6397 C.ar      1 <0>        -0.0407
     34 C26        -3.6043   -1.7251   -1.4758 C.ar      1 <0>        -0.1368
     35 C27        -2.9970   -2.9678   -1.3964 C.ar      1 <0>         0.1591
     36 O4         -1.9553   -3.2708   -2.2143 O.3       1 <0>        -0.4720
     37 C28        -5.3133   -0.0600   -0.7271 C.3       1 <0>        -0.1263
     38 Cl1        -6.4486   -1.9435    1.3227 Cl        1 <0>        -0.0553
     39 H3          1.0039    1.9031    0.0027 H         1 <0>         0.0664
     40 H4         -0.5459    1.8868   -0.8726 H         1 <0>         0.0667
     41 H5         -0.5289    1.8773    0.9072 H         1 <0>         0.0779
     42 H6          0.5293   -0.3651    0.8851 H         1 <0>         0.0591
     43 H7         -1.0205   -0.3814    0.0098 H         1 <0>         0.0600
     44 H8         -0.2563   -2.2690    0.4819 H         1 <0>         0.1246
     45 H9          1.0743   -5.6217   -1.7935 H         1 <0>         0.1202
     46 H10         2.0261   -4.1070   -3.4839 H         1 <0>         0.1324
     47 H11         2.8557   -1.2414   -3.2309 H         1 <0>         0.3852
     48 H12         2.5964   -6.9109    0.6793 H         1 <0>         0.0995
     49 H13         2.4929   -5.1382    0.8020 H         1 <0>         0.0962
     50 H14         1.9532   -4.0684    2.9160 H         1 <0>         0.1204
     51 H15         2.0205   -4.2345    5.3718 H         1 <0>         0.1219
     52 H16         2.2866   -8.4809    5.0774 H         1 <0>         0.1228
     53 H17         2.2108   -8.3154    2.6218 H         1 <0>         0.1274
     54 H18         1.1844   -6.5596    7.2649 H         1 <0>         0.0711
     55 H19         2.7776   -7.3473    7.1672 H         1 <0>         0.0675
     56 H20         2.6670   -5.5750    7.2900 H         1 <0>         0.0670
     57 H21        -4.8921   -4.3118    1.0804 H         1 <0>         0.1394
     58 H22        -3.2495   -0.9960   -2.1891 H         1 <0>         0.1438
     59 H23        -2.2184   -3.6693   -3.0552 H         1 <0>         0.3916
     60 H24        -4.8110    0.6298   -0.0490 H         1 <0>         0.0821
     61 H25        -5.2378    0.3145   -1.7480 H         1 <0>         0.0761
     62 H26        -6.3636   -0.1440   -0.4478 H         1 <0>         0.0784
@<TRIPOS>BOND
     1    1    2 1
     2    1   39 1
     3    1   40 1
     4    1   41 1
     5    2    3 1
     6    2   42 1
     7    2   43 1
     8    3    4 1
     9    4    9 ar
    10    4    5 ar
    11    5    6 ar
    12    5   44 1
    13    6    7 ar
    14    6   11 1
    15    7    8 ar
    16    7   45 1
    17    8    9 ar
    18    8   46 1
    19    9   10 1
    20   10   47 1
    21   11   12 1
    22   11   21 1
    23   11   13 1
    24   13   18 1
    25   13   14 2
    26   14   15 1
    27   14   30 1
    28   15   16 1
    29   15   17 1
    30   17   18 2
    31   18   19 1
    32   19   20 2
    33   19   21 am
    34   21   22 1
    35   22   23 1
    36   22   48 1
    37   22   49 1
    38   23   28 ar
    39   23   24 ar
    40   24   25 ar
    41   24   50 1
    42   25   26 ar
    43   25   51 1
    44   26   27 ar
    45   26   29 1
    46   27   28 ar
    47   27   52 1
    48   28   53 1
    49   29   54 1
    50   29   55 1
    51   29   56 1
    52   30   35 ar
    53   30   31 ar
    54   31   32 ar
    55   31   57 1
    56   32   33 ar
    57   32   38 1
    58   33   34 ar
    59   33   37 1
    60   34   35 ar
    61   34   58 1
    62   35   36 1
    63   36   59 1
    64   37   60 1
    65   37   61 1
    66   37   62 1
@<TRIPOS>MOLECULE
ZINC13065149
   76    80     0     0     0
SMALL
USER_CHARGES
3-[[cyclohexyl-[(1S)-1-(1-phenethyltetrazol-5-yl)propyl]amino]methyl]-7,8-dimethyl-1H-quinolin-2-one
@<TRIPOS>ATOM
      1 C1          0.9177    1.3510    2.8854 C.3       1 <0>        -0.1801
      2 C2         -0.2445    1.6307    1.9305 C.3       1 <0>        -0.1544
      3 C3         -0.4889    3.1390    1.8526 C.3       1 <0>         0.1271
      4 H1         -1.2758    3.3425    1.1264 H         1 <0>         0.1552
      5 C4         -0.9102    3.6501    3.2062 C.2       1 <0>         0.1270
      6 N1         -0.1372    3.8340    4.2487 N.2       1 <0>        -0.2799
      7 N2         -0.8674    4.2804    5.2117 N.2       1 <0>        -0.0482
      8 N3         -2.0862    4.3862    4.8107 N.2       1 <0>        -0.0519
      9 N4         -2.1523    4.0120    3.5777 N.pl3     1 <0>        -0.2773
     10 C5         -3.3541    3.9831    2.7404 C.3       1 <0>         0.1033
     11 C6         -4.0382    2.6215    2.8770 C.3       1 <0>        -0.0929
     12 C7         -5.2745    2.5917    2.0157 C.ar      1 <0>        -0.1011
     13 C8         -6.4906    2.9903    2.5382 C.ar      1 <0>        -0.1069
     14 C9         -7.6237    2.9680    1.7466 C.ar      1 <0>        -0.1115
     15 C10        -7.5425    2.5368    0.4357 C.ar      1 <0>        -0.1079
     16 C11        -6.3274    2.1329   -0.0851 C.ar      1 <0>        -0.1157
     17 C12        -5.1934    2.1605    0.7049 C.ar      1 <0>        -0.1150
     18 C13         0.9877    3.6355   -0.0009 C.3       1 <0>         0.0654
     19 C14         1.5515    2.2601   -0.2486 C.2       1 <0>        -0.2833
     20 C15         0.8191    1.3417   -0.9260 C.2       1 <0>         0.0625
     21 C16         1.3955    0.0146   -1.1499 C.ar      1 <0>        -0.1590
     22 C17         0.6883   -0.9740   -1.8422 C.ar      1 <0>        -0.0449
     23 C18         1.2543   -2.2021   -2.0349 C.ar      1 <0>        -0.1390
     24 C19         2.5256   -2.4781   -1.5497 C.ar      1 <0>        -0.0028
     25 C20         3.2404   -1.5196   -0.8646 C.ar      1 <0>        -0.1323
     26 C21         2.6846   -0.2614   -0.6566 C.ar      1 <0>         0.2049
     27 N5          3.3777    0.7167    0.0242 N.am      1 <0>        -0.6161
     28 H2          4.2659    0.5248    0.3634 H         1 <0>         0.4254
     29 C22         2.8422    1.9343    0.2203 C.2       1 <0>         0.5449
     30 O1          3.4856    2.7763    0.8226 O.2       1 <0>        -0.5441
     31 C23         4.6189   -1.8333   -0.3426 C.3       1 <0>        -0.1257
     32 C24         3.1299   -3.8403   -1.7742 C.3       1 <0>        -0.1352
     33 C25         0.7134    5.2398    1.7917 C.3       1 <0>         0.0175
     34 C26        -0.3069    5.9608    0.9084 C.3       1 <0>        -0.1357
     35 C27        -0.3425    7.4451    1.2776 C.3       1 <0>        -0.1158
     36 C28         1.0427    8.0578    1.0612 C.3       1 <0>        -0.1289
     37 C29         2.0629    7.3369    1.9446 C.3       1 <0>        -0.1174
     38 C30         2.0985    5.8526    1.5753 C.3       1 <0>        -0.1327
     39 H3          1.0587    0.2743    2.9806 H         1 <0>         0.0891
     40 H4          0.6944    1.7761    3.8639 H         1 <0>         0.0865
     41 H5          1.8281    1.8033    2.4920 H         1 <0>         0.0537
     42 H6          0.0006    1.2506    0.9387 H         1 <0>         0.1091
     43 H7         -1.1435    1.1354    2.2974 H         1 <0>         0.1124
     44 H8         -4.0393    4.7678    3.0611 H         1 <0>         0.1313
     45 H9         -3.0756    4.1470    1.6994 H         1 <0>         0.1128
     46 H10        -3.3530    1.8368    2.5564 H         1 <0>         0.0824
     47 H11        -4.3167    2.4576    3.9181 H         1 <0>         0.0954
     48 H12        -6.5548    3.3229    3.5637 H         1 <0>         0.1264
     49 H13        -8.5729    3.2839    2.1534 H         1 <0>         0.1293
     50 H14        -8.4284    2.5159   -0.1817 H         1 <0>         0.1282
     51 H15        -6.2640    1.7960   -1.1092 H         1 <0>         0.1271
     52 H16        -4.2440    1.8450    0.2980 H         1 <0>         0.1192
     53 H17         0.0483    3.7461   -0.5427 H         1 <0>         0.1418
     54 H18         1.6974    4.3869   -0.3471 H         1 <0>         0.1511
     55 H19        -0.1675    1.5839   -1.2925 H         1 <0>         0.1586
     56 H20        -0.3012   -0.7672   -2.2224 H         1 <0>         0.1428
     57 H21         0.7080   -2.9654   -2.5691 H         1 <0>         0.1402
     58 H22         5.3604   -1.5820   -1.1010 H         1 <0>         0.0826
     59 H23         4.8080   -1.2492    0.5580 H         1 <0>         0.0639
     60 H24         4.6853   -2.8955   -0.1074 H         1 <0>         0.0885
     61 H25         3.6841   -3.8417   -2.7128 H         1 <0>         0.0877
     62 H26         3.8058   -4.0778   -0.9528 H         1 <0>         0.0810
     63 H27         2.3368   -4.5866   -1.8195 H         1 <0>         0.0797
     64 H28         0.4280    5.3472    2.8382 H         1 <0>         0.1352
     65 H29        -0.0215    5.8534   -0.1381 H         1 <0>         0.0929
     66 H30        -1.2937    5.5242    1.0625 H         1 <0>         0.0710
     67 H31        -0.6278    7.5524    2.3241 H         1 <0>         0.0694
     68 H32        -1.0693    7.9587    0.6483 H         1 <0>         0.0862
     69 H33         1.0173    9.1153    1.3243 H         1 <0>         0.0801
     70 H34         1.3280    7.9505    0.0147 H         1 <0>         0.0720
     71 H35         1.7775    7.4443    2.9911 H         1 <0>         0.0730
     72 H36         3.0497    7.7734    1.7905 H         1 <0>         0.0874
     73 H37         2.8253    5.3389    2.2047 H         1 <0>         0.0929
     74 H38         2.3839    5.7452    0.5289 H         1 <0>         0.0882
     75 N6          0.7694    3.8025    1.4513 N.4       1 <0>        -0.3874
     76 H39         1.5508    3.3700    1.9579 H         1 <0>         0.4406
@<TRIPOS>BOND
     1    1    2 1
     2    1   39 1
     3    1   40 1
     4    1   41 1
     5    2    3 1
     6    2   42 1
     7    2   43 1
     8    3    4 1
     9    3    5 1
    10    3   75 1
    11    5    9 1
    12    5    6 2
    13    6    7 1
    14    7    8 2
    15    8    9 1
    16    9   10 1
    17   10   11 1
    18   10   44 1
    19   10   45 1
    20   11   12 1
    21   11   46 1
    22   11   47 1
    23   12   17 ar
    24   12   13 ar
    25   13   14 ar
    26   13   48 1
    27   14   15 ar
    28   14   49 1
    29   15   16 ar
    30   15   50 1
    31   16   17 ar
    32   16   51 1
    33   17   52 1
    34   18   19 1
    35   18   53 1
    36   18   54 1
    37   18   75 1
    38   19   29 1
    39   19   20 2
    40   20   21 1
    41   20   55 1
    42   21   26 ar
    43   21   22 ar
    44   22   23 ar
    45   22   56 1
    46   23   24 ar
    47   23   57 1
    48   24   25 ar
    49   24   32 1
    50   25   26 ar
    51   25   31 1
    52   26   27 1
    53   27   28 1
    54   27   29 am
    55   29   30 2
    56   31   58 1
    57   31   59 1
    58   31   60 1
    59   32   61 1
    60   32   62 1
    61   32   63 1
    62   33   38 1
    63   33   34 1
    64   33   64 1
    65   33   75 1
    66   34   35 1
    67   34   65 1
    68   34   66 1
    69   35   36 1
    70   35   67 1
    71   35   68 1
    72   36   37 1
    73   36   69 1
    74   36   70 1
    75   37   38 1
    76   37   71 1
    77   37   72 1
    78   38   73 1
    79   38   74 1
    80   75   76 1
@<TRIPOS>MOLECULE
ZINC30939402
   72    76     0     0     0
SMALL
USER_CHARGES
N-[4-(azepan-1-ylsulfonyl)phenyl]-1-(1-naphthylmethyl)piperidine-4-carboxamide
@<TRIPOS>ATOM
      1 C1          2.2987    5.3193   -0.0149 C.ar      1 <0>        -0.1155
      2 C2          1.0720    5.9808    0.0042 C.ar      1 <0>        -0.0775
      3 C3         -0.0984    5.2864    0.0159 C.ar      1 <0>        -0.1515
      4 C4         -0.0733    3.8812    0.0097 C.ar      1 <0>        -0.0306
      5 C5          1.1742    3.2085   -0.0096 C.ar      1 <0>        -0.0579
      6 C6          2.3619    3.9599   -0.0218 C.ar      1 <0>        -0.0850
      7 C7          1.1992    1.8037   -0.0166 C.ar      1 <0>        -0.0590
      8 C8          0.0285    1.1092   -0.0049 C.ar      1 <0>        -0.1322
      9 C9         -1.1979    1.7705    0.0082 C.ar      1 <0>        -0.0623
     10 C10        -1.2608    3.1302    0.0218 C.ar      1 <0>        -0.1566
     11 C11        -2.5971    3.8265    0.0418 C.3       1 <0>         0.0456
     12 N1         -2.9377    4.2717   -1.3161 N.4       1 <0>        -0.4001
     13 C12        -2.6883    3.2076   -2.2968 C.3       1 <0>        -0.0056
     14 C13        -2.9142    3.7509   -3.7095 C.3       1 <0>        -0.1394
     15 C14        -4.3542    4.2566   -3.8324 C.3       1 <0>        -0.1186
     16 C15        -4.6026    5.3294   -2.7685 C.3       1 <0>        -0.1298
     17 C16        -4.3278    4.7403   -1.3831 C.3       1 <0>        -0.0032
     18 C17        -4.5653    4.8476   -5.2025 C.2       1 <0>         0.5180
     19 O1         -4.8832    6.0123   -5.3182 O.2       1 <0>        -0.5046
     20 N2         -4.4008    4.0818   -6.2994 N.am      1 <0>        -0.6838
     21 C18        -4.6899    4.6022   -7.5657 C.ar      1 <0>         0.1939
     22 C19        -5.2240    3.7810   -8.5500 C.ar      1 <0>        -0.1627
     23 C20        -5.5132    4.2990   -9.7973 C.ar      1 <0>         0.0012
     24 C21        -5.2612    5.6310  -10.0698 C.ar      1 <0>        -0.6870
     25 C22        -4.7241    6.4500   -9.0936 C.ar      1 <0>        -0.0004
     26 C23        -4.4380    5.9395   -7.8425 C.ar      1 <0>        -0.1433
     27 S1         -5.6247    6.2862  -11.6646 S.o2      1 <0>         2.6826
     28 O2         -6.6262    5.4505  -12.2283 O.2       1 <0>        -0.9528
     29 O3         -5.8058    7.6856  -11.4972 O.2       1 <0>        -0.9484
     30 N3         -4.2681    6.0924  -12.5944 N.pl3     1 <0>        -0.9849
     31 C24        -3.2852    7.1524  -12.6156 C.3       1 <0>         0.1233
     32 C25        -3.6234    8.1604  -13.7340 C.3       1 <0>        -0.1416
     33 C26        -3.3663    7.5635  -15.0536 C.3       1 <0>        -0.1215
     34 C27        -4.2258    6.3433  -15.3698 C.3       1 <0>        -0.1234
     35 C28        -3.5770    5.1108  -14.7899 C.3       1 <0>        -0.1281
     36 C29        -4.1152    4.8471  -13.3719 C.3       1 <0>         0.1077
     37 H1          3.2129    5.8943   -0.0247 H         1 <0>         0.1343
     38 H2          1.0499    7.0605    0.0094 H         1 <0>         0.1326
     39 H3         -1.0415    5.8125    0.0300 H         1 <0>         0.1191
     40 H4          3.3197    3.4611   -0.0370 H         1 <0>         0.1377
     41 H5          2.1423    1.2777   -0.0316 H         1 <0>         0.1396
     42 H6          0.0505    0.0295   -0.0104 H         1 <0>         0.1371
     43 H7         -2.1121    1.1956    0.0124 H         1 <0>         0.1321
     44 H8         -3.3680    3.1302    0.4035 H         1 <0>         0.1368
     45 H9         -2.5466    4.6977    0.7115 H         1 <0>         0.1394
     46 H10        -1.6502    2.8567   -2.2010 H         1 <0>         0.1384
     47 H11        -3.3770    2.3700   -2.1121 H         1 <0>         0.1304
     48 H12        -2.2155    4.5788   -3.9000 H         1 <0>         0.0967
     49 H13        -2.7414    2.9493   -4.4427 H         1 <0>         0.1161
     50 H14        -5.0598    3.4231   -3.7005 H         1 <0>         0.1211
     51 H15        -3.9321    6.1833   -2.9453 H         1 <0>         0.0995
     52 H16        -5.6482    5.6664   -2.8247 H         1 <0>         0.1227
     53 H17        -5.0086    3.8953   -1.2028 H         1 <0>         0.1308
     54 H18        -4.4916    5.5130   -0.6175 H         1 <0>         0.1383
     55 H19        -4.0393    3.0478   -6.1991 H         1 <0>         0.4381
     56 H20        -5.4173    2.7396   -8.3391 H         1 <0>         0.1375
     57 H21        -5.9327    3.6619  -10.5619 H         1 <0>         0.1466
     58 H22        -4.5284    7.4899   -9.3095 H         1 <0>         0.1449
     59 H23        -4.0192    6.5798   -7.0803 H         1 <0>         0.1459
     60 H24        -3.2858    7.6724  -11.6463 H         1 <0>         0.0781
     61 H25        -2.2889    6.7250  -12.8017 H         1 <0>         0.0842
     62 H26        -4.6852    8.4399  -13.6669 H         1 <0>         0.0729
     63 H27        -2.9997    9.0591  -13.6186 H         1 <0>         0.0794
     64 H28        -3.5650    8.3086  -15.8380 H         1 <0>         0.0620
     65 H29        -2.3163    7.2409  -15.1118 H         1 <0>         0.0617
     66 H30        -5.2251    6.4746  -14.9293 H         1 <0>         0.0626
     67 H31        -4.3176    6.2320  -16.4603 H         1 <0>         0.0672
     68 H32        -3.8014    4.2435  -15.4282 H         1 <0>         0.0789
     69 H33        -2.4880    5.2582  -14.7411 H         1 <0>         0.0695
     70 H34        -3.4100    4.1778  -12.8573 H         1 <0>         0.0671
     71 H35        -5.0921    4.3499  -13.4637 H         1 <0>         0.0969
     72 H36        -2.2852    5.1204   -1.5691 H         1 <0>         0.4384
@<TRIPOS>BOND
     1    1    6 ar
     2    1    2 ar
     3    1   37 1
     4    2    3 ar
     5    2   38 1
     6    3    4 ar
     7    3   39 1
     8    4   10 ar
     9    4    5 ar
    10    5    6 ar
    11    5    7 ar
    12    6   40 1
    13    7    8 ar
    14    7   41 1
    15    8    9 ar
    16    8   42 1
    17    9   10 ar
    18    9   43 1
    19   10   11 1
    20   11   12 1
    21   11   44 1
    22   11   45 1
    23   12   17 1
    24   12   13 1
    25   12   72 1
    26   13   14 1
    27   13   46 1
    28   13   47 1
    29   14   15 1
    30   14   48 1
    31   14   49 1
    32   15   16 1
    33   15   18 1
    34   15   50 1
    35   16   17 1
    36   16   51 1
    37   16   52 1
    38   17   53 1
    39   17   54 1
    40   18   19 2
    41   18   20 am
    42   20   21 1
    43   20   55 1
    44   21   26 ar
    45   21   22 ar
    46   22   23 ar
    47   22   56 1
    48   23   24 ar
    49   23   57 1
    50   24   25 ar
    51   24   27 1
    52   25   26 ar
    53   25   58 1
    54   26   59 1
    55   27   28 2
    56   27   29 2
    57   27   30 1
    58   30   36 1
    59   30   31 1
    60   31   32 1
    61   31   60 1
    62   31   61 1
    63   32   33 1
    64   32   62 1
    65   32   63 1
    66   33   34 1
    67   33   64 1
    68   33   65 1
    69   34   35 1
    70   34   66 1
    71   34   67 1
    72   35   36 1
    73   35   68 1
    74   35   69 1
    75   36   70 1
    76   36   71 1
@<TRIPOS>MOLECULE
ZINC38597848
   70    73     0     0     0
SMALL
USER_CHARGES

@<TRIPOS>ATOM
      1 C1         -0.5729   -2.0182    6.3573 C.3       1 <0>        -0.1348
      2 C2         -0.4030   -1.9889    4.8602 C.ar      1 <0>        -0.0111
      3 C3         -1.1835   -2.8022    4.0600 C.ar      1 <0>        -0.1097
      4 C4         -1.0276   -2.7753    2.6867 C.ar      1 <0>         0.0145
      5 C5         -0.0916   -1.9349    2.1136 C.ar      1 <0>        -0.6884
      6 C6          0.6883   -1.1210    2.9138 C.ar      1 <0>         0.0246
      7 C7          0.5295   -1.1447    4.2868 C.ar      1 <0>        -0.1087
      8 C8          1.3760   -0.2537    5.1588 C.3       1 <0>        -0.1232
      9 C9          1.7091   -0.2052    2.2891 C.3       1 <0>        -0.1390
     10 S1          0.1079   -1.9016    0.3633 S.o2      1 <0>         2.6900
     11 O1         -1.1111   -2.3742   -0.1935 O.2       1 <0>        -0.9455
     12 O2          0.6497   -0.6282    0.0405 O.2       1 <0>        -0.9376
     13 N1          1.2678   -3.0201   -0.0187 N.pl3     1 <0>        -1.1360
     14 C10         1.0207   -4.4436    0.2236 C.3       1 <0>         0.0877
     15 C11         2.0638   -5.2768   -0.5238 C.3       1 <0>         0.1304
     16 H1          1.8297   -6.3357   -0.4138 H         1 <0>         0.1768
     17 C12         3.4303   -5.0023    0.0492 C.2       1 <0>        -0.1088
     18 C13         4.0876   -5.7836    0.9249 C.2       1 <0>        -0.1250
     19 C14         5.3238   -5.1510    1.1907 C.2       1 <0>        -0.2109
     20 C15         5.3479   -4.0209    0.4615 C.2       1 <0>         0.0122
     21 O3          4.2009   -3.9390   -0.2323 O.3       1 <0>        -0.1832
     22 N2          2.0488   -4.9173   -1.9480 N.4       1 <0>        -0.3850
     23 C16         0.6996   -5.1247   -2.4891 C.3       1 <0>        -0.0370
     24 C17         0.6537   -4.6426   -3.9428 C.3       1 <0>         0.1009
     25 N3          1.7202   -5.3230   -4.6937 N.pl3     1 <0>        -0.6426
     26 C18         3.0812   -5.3044   -4.1355 C.3       1 <0>         0.1010
     27 C19         3.0125   -5.7552   -2.6727 C.3       1 <0>        -0.0219
     28 C20         1.4482   -5.9686   -5.9037 C.ar      1 <0>         0.1878
     29 C21         0.1867   -5.8702   -6.4761 C.ar      1 <0>        -0.1563
     30 C22        -0.0797   -6.5085   -7.6717 C.ar      1 <0>        -0.1037
     31 C23         0.9099   -7.2460   -8.2995 C.ar      1 <0>         0.0640
     32 C24         2.1683   -7.3454   -7.7305 C.ar      1 <0>        -0.1045
     33 C25         2.4407   -6.7045   -6.5377 C.ar      1 <0>        -0.1576
     34 F1          0.6470   -7.8698   -9.4686 F         1 <0>        -0.1358
     35 C26        -1.8778   -3.6626    1.8144 C.3       1 <0>        -0.1413
     36 C27        -2.2039   -3.7183    4.6847 C.3       1 <0>        -0.1243
     37 H2         -1.3242   -1.2856    6.6521 H         1 <0>         0.0846
     38 H3         -0.8939   -3.0127    6.6672 H         1 <0>         0.0795
     39 H4          0.3766   -1.7775    6.8355 H         1 <0>         0.0772
     40 H5          2.2905   -0.7785    5.4352 H         1 <0>         0.0746
     41 H6          1.6295    0.6547    4.6123 H         1 <0>         0.0749
     42 H7          0.8204    0.0072    6.0595 H         1 <0>         0.0751
     43 H8          1.2221    0.7147    1.9654 H         1 <0>         0.0976
     44 H9          2.4817    0.0308    3.0209 H         1 <0>         0.0796
     45 H10         2.1619   -0.6987    1.4290 H         1 <0>         0.0721
     46 H11         2.1108   -2.7327   -0.4029 H         1 <0>         0.4178
     47 H12         1.0902   -4.6478    1.2920 H         1 <0>         0.1204
     48 H13         0.0241   -4.7051   -0.1322 H         1 <0>         0.1192
     49 H14         3.7379   -6.7151    1.3449 H         1 <0>         0.1625
     50 H15         6.0996   -5.5067    1.8525 H         1 <0>         0.1642
     51 H16         6.1546   -3.3033    0.4354 H         1 <0>         0.2192
     52 H17         0.4514   -6.1853   -2.4499 H         1 <0>         0.1430
     53 H18        -0.0205   -4.5607   -1.8963 H         1 <0>         0.1483
     54 H19        -0.3147   -4.8870   -4.3794 H         1 <0>         0.1324
     55 H20         0.8124   -3.5647   -3.9765 H         1 <0>         0.0909
     56 H21         3.7177   -5.9862   -4.6995 H         1 <0>         0.1299
     57 H22         3.4851   -4.2933   -4.1886 H         1 <0>         0.0899
     58 H23         3.9968   -5.6558   -2.2151 H         1 <0>         0.1403
     59 H24         2.6943   -6.7968   -2.6280 H         1 <0>         0.1386
     60 H25        -0.5855   -5.2954   -5.9866 H         1 <0>         0.1346
     61 H26        -1.0606   -6.4325   -8.1170 H         1 <0>         0.1423
     62 H27         2.9386   -7.9215   -8.2217 H         1 <0>         0.1417
     63 H28         3.4237   -6.7787   -6.0966 H         1 <0>         0.1329
     64 H29        -2.7358   -3.0984    1.4490 H         1 <0>         0.0990
     65 H30        -1.2871   -4.0141    0.9684 H         1 <0>         0.0686
     66 H31        -2.2254   -4.5172    2.3948 H         1 <0>         0.0819
     67 H32        -3.1570   -3.1963    4.7700 H         1 <0>         0.0776
     68 H33        -2.3288   -4.6029    4.0602 H         1 <0>         0.0735
     69 H34        -1.8642   -4.0185    5.6760 H         1 <0>         0.0750
     70 H35         2.3044   -3.9467   -2.0514 H         1 <0>         0.4230
@<TRIPOS>BOND
     1    1    2 1
     2    1   37 1
     3    1   38 1
     4    1   39 1
     5    2    7 ar
     6    2    3 ar
     7    3    4 ar
     8    3   36 1
     9    4    5 ar
    10    4   35 1
    11    5    6 ar
    12    5   10 1
    13    6    7 ar
    14    6    9 1
    15    7    8 1
    16    8   40 1
    17    8   41 1
    18    8   42 1
    19    9   43 1
    20    9   44 1
    21    9   45 1
    22   10   11 2
    23   10   12 2
    24   10   13 1
    25   13   14 1
    26   13   46 1
    27   14   15 1
    28   14   47 1
    29   14   48 1
    30   15   16 1
    31   15   17 1
    32   15   22 1
    33   17   21 1
    34   17   18 2
    35   18   19 1
    36   18   49 1
    37   19   20 2
    38   19   50 1
    39   20   21 1
    40   20   51 1
    41   22   27 1
    42   22   23 1
    43   22   70 1
    44   23   24 1
    45   23   52 1
    46   23   53 1
    47   24   25 1
    48   24   54 1
    49   24   55 1
    50   25   26 1
    51   25   28 1
    52   26   27 1
    53   26   56 1
    54   26   57 1
    55   27   58 1
    56   27   59 1
    57   28   33 ar
    58   28   29 ar
    59   29   30 ar
    60   29   60 1
    61   30   31 ar
    62   30   61 1
    63   31   32 ar
    64   31   34 1
    65   32   33 ar
    66   32   62 1
    67   33   63 1
    68   35   64 1
    69   35   65 1
    70   35   66 1
    71   36   67 1
    72   36   68 1
    73   36   69 1
@<TRIPOS>MOLECULE
ZINC44919181
   63    66     0     0     0
SMALL
USER_CHARGES

@<TRIPOS>ATOM
      1 C1         -0.1100    0.7859   -0.4290 C.3       1 <0>        -0.1799
      2 C2          0.1180   -0.6762   -0.1434 C.ar      1 <0>         0.0212
      3 C3         -0.3674   -1.6335   -1.0156 C.ar      1 <0>        -0.1213
      4 C4         -0.1602   -2.9740   -0.7567 C.ar      1 <0>        -0.0594
      5 C5          0.5370   -3.3604    0.3807 C.ar      1 <0>         0.1060
      6 C6          1.0234   -2.3969    1.2541 C.ar      1 <0>        -0.0377
      7 C7          0.8169   -1.0574    0.9870 C.ar      1 <0>        -0.6621
      8 S1          1.4396    0.1664    2.0912 S.o2      1 <0>         2.7107
      9 O1          0.3587    1.0437    2.3764 O.2       1 <0>        -0.9428
     10 O2          2.1466   -0.5277    3.1098 O.2       1 <0>        -0.9517
     11 N1          2.5616    1.0535    1.2566 N.pl3     1 <0>        -1.0093
     12 C8          3.9663    0.6756    1.0432 C.3       1 <0>         0.1173
     13 C9          4.6296    1.8132    0.2385 C.3       1 <0>        -0.1294
     14 C10         3.7093    3.0278    0.5305 C.3       1 <0>        -0.1305
     15 C11         2.3156    2.3499    0.5992 C.3       1 <0>         0.1060
     16 N2          0.7482   -4.7180    0.6461 N.am      1 <0>        -0.6589
     17 C12         0.8801   -5.5911   -0.3721 C.2       1 <0>         0.5250
     18 O3          0.9229   -5.1878   -1.5151 O.2       1 <0>        -0.5110
     19 C13         0.9742   -7.0685   -0.0903 C.3       1 <0>        -0.1298
     20 H1          1.8429   -7.2645    0.5383 H         1 <0>         0.1258
     21 C14        -0.2942   -7.5335    0.6309 C.3       1 <0>        -0.1325
     22 C15        -0.2230   -9.0485    0.8425 C.3       1 <0>        -0.1405
     23 C16        -0.0392   -9.7389   -0.5106 C.3       1 <0>        -0.0181
     24 N3          1.2032   -9.2720   -1.1374 N.4       1 <0>        -0.3811
     25 C17         1.1148   -7.8322   -1.4088 C.3       1 <0>         0.0107
     26 C18         1.4150   -9.9944   -2.3989 C.3       1 <0>         0.0440
     27 C19         1.6387  -11.4563   -2.1092 C.ar      1 <0>        -0.1488
     28 C20         2.9186  -11.9285   -1.8858 C.ar      1 <0>        -0.0857
     29 C21         3.1242  -13.2691   -1.6196 C.ar      1 <0>        -0.0860
     30 C22         2.0490  -14.1383   -1.5767 C.ar      1 <0>        -0.0633
     31 C23         0.7685  -13.6654   -1.8003 C.ar      1 <0>        -0.0868
     32 C24         0.5633  -12.3237   -2.0613 C.ar      1 <0>        -0.0900
     33 Br1         2.3296  -15.9727   -1.2132 Br        1 <0>        -0.0155
     34 H2          0.7155    1.1723   -1.0267 H         1 <0>         0.0930
     35 H3         -1.0439    0.9076   -0.9776 H         1 <0>         0.0906
     36 H4         -0.1664    1.3351    0.5108 H         1 <0>         0.1034
     37 H5         -0.9094   -1.3323   -1.8998 H         1 <0>         0.1405
     38 H6         -0.5401   -3.7211   -1.4378 H         1 <0>         0.1425
     39 H7          1.5659   -2.6942    2.1394 H         1 <0>         0.1479
     40 H8          4.4688    0.5590    2.0034 H         1 <0>         0.0768
     41 H9          4.0180   -0.2560    0.4797 H         1 <0>         0.0643
     42 H10         5.6413    2.0007    0.5980 H         1 <0>         0.0851
     43 H11         4.6345    1.5803   -0.8263 H         1 <0>         0.0769
     44 H12         3.9679    3.4942    1.4811 H         1 <0>         0.0806
     45 H13         3.7496    3.7528   -0.2824 H         1 <0>         0.0875
     46 H14         1.9157    2.1971   -0.4032 H         1 <0>         0.0745
     47 H15         1.6299    2.9530    1.1942 H         1 <0>         0.0883
     48 H16         0.7998   -5.0306    1.5629 H         1 <0>         0.4168
     49 H17        -0.3683   -7.0336    1.5967 H         1 <0>         0.1014
     50 H18        -1.1675   -7.2906    0.0255 H         1 <0>         0.0918
     51 H19         0.6209   -9.2863    1.4901 H         1 <0>         0.0924
     52 H20        -1.1469   -9.3951    1.3055 H         1 <0>         0.1200
     53 H21         0.0117  -10.8178   -0.3636 H         1 <0>         0.1351
     54 H22        -0.8837   -9.5007   -1.1573 H         1 <0>         0.1321
     55 H23         0.2462   -7.6347   -2.0370 H         1 <0>         0.1404
     56 H24         2.0172   -7.5033   -1.9243 H         1 <0>         0.1418
     57 H25         0.5371   -9.8802   -3.0348 H         1 <0>         0.1403
     58 H26         2.2883   -9.5873   -2.9086 H         1 <0>         0.1421
     59 H27         3.7580  -11.2498   -1.9196 H         1 <0>         0.1416
     60 H28         4.1242  -13.6380   -1.4454 H         1 <0>         0.1470
     61 H29        -0.0713  -14.3437   -1.7669 H         1 <0>         0.1469
     62 H30        -0.4369  -11.9536   -2.2318 H         1 <0>         0.1413
     63 H31         1.9789   -9.4487   -0.5168 H         1 <0>         0.4225
@<TRIPOS>BOND
     1    1    2 1
     2    1   34 1
     3    1   35 1
     4    1   36 1
     5    2    7 ar
     6    2    3 ar
     7    3    4 ar
     8    3   37 1
     9    4    5 ar
    10    4   38 1
    11    5    6 ar
    12    5   16 1
    13    6    7 ar
    14    6   39 1
    15    7    8 1
    16    8    9 2
    17    8   10 2
    18    8   11 1
    19   11   15 1
    20   11   12 1
    21   12   13 1
    22   12   40 1
    23   12   41 1
    24   13   14 1
    25   13   42 1
    26   13   43 1
    27   14   15 1
    28   14   44 1
    29   14   45 1
    30   15   46 1
    31   15   47 1
    32   16   17 am
    33   16   48 1
    34   17   18 2
    35   17   19 1
    36   19   20 1
    37   19   25 1
    38   19   21 1
    39   21   22 1
    40   21   49 1
    41   21   50 1
    42   22   23 1
    43   22   51 1
    44   22   52 1
    45   23   24 1
    46   23   53 1
    47   23   54 1
    48   24   25 1
    49   24   26 1
    50   24   63 1
    51   25   55 1
    52   25   56 1
    53   26   27 1
    54   26   57 1
    55   26   58 1
    56   27   32 ar
    57   27   28 ar
    58   28   29 ar
    59   28   59 1
    60   29   30 ar
    61   29   60 1
    62   30   31 ar
    63   30   33 1
    64   31   32 ar
    65   31   61 1
    66   32   62 1
@<TRIPOS>MOLECULE
ZINC63739176
   61    64     0     0     0
SMALL
USER_CHARGES

@<TRIPOS>ATOM
      1 C1         -0.0187    1.5258    0.0104 C.3       1 <0>        -0.1493
      2 C2          0.0021   -0.0041    0.0020 C.3       1 <0>        -0.1067
      3 H1          0.5123   -0.3556   -0.8948 H         1 <0>         0.0990
      4 C3          0.7421   -0.5109    1.2415 C.3       1 <0>        -0.0678
      5 C4          0.7612   -2.0412    1.2337 C.3       1 <0>        -0.1430
      6 C5          1.4724   -2.5454    2.4934 C.3       1 <0>         0.1130
      7 N1          2.8026   -1.9256    2.5655 N.am      1 <0>        -0.5909
      8 C6          2.9051   -0.4619    2.4900 C.3       1 <0>         0.0896
      9 C7          2.1778    0.0190    1.2304 C.3       1 <0>        -0.1365
     10 C8          3.9078   -2.6854    2.6988 C.2       1 <0>         0.5217
     11 O1          3.8100   -3.8927    2.7604 O.2       1 <0>        -0.5024
     12 C9          5.2652   -2.0348    2.7714 C.3       1 <0>         0.0736
     13 H2          5.4511   -1.4529    1.8686 H         1 <0>         0.1920
     14 C10         5.3525   -1.1459    3.9916 C.2       1 <0>         0.0254
     15 C11         6.3533   -1.6451    4.7497 C.ar      1 <0>        -0.1591
     16 C12         6.9219   -1.2331    6.0398 C.ar      1 <0>         0.0269
     17 C13         7.9436   -1.9436    6.5638 C.ar      1 <0>        -0.2108
     18 C14         8.4758   -3.0678    5.9042 C.ar      1 <0>         0.3016
     19 C15         8.0013   -3.5057    4.7102 C.ar      1 <0>        -0.2707
     20 C16         6.9295   -2.8307    4.0746 C.ar      1 <0>         0.3562
     21 N2          6.3065   -3.0547    2.9388 N.pl3     1 <0>        -0.5698
     22 O2          9.5021   -3.7386    6.4836 O.3       1 <0>        -0.2804
     23 C17         9.9726   -3.2453    7.7395 C.3       1 <0>         0.0075
     24 C18        -1.4117   -0.5257    0.0127 C.2       1 <0>         0.5175
     25 O3         -1.7902   -1.2332    0.9222 O.2       1 <0>        -0.5331
     26 N3         -2.2556   -0.2060   -0.9884 N.am      1 <0>        -0.7247
     27 C19        -3.6300   -0.7131   -0.9780 C.3       1 <0>         0.1621
     28 C20        -4.3588   -0.2139   -2.1989 C.ar      1 <0>        -0.1091
     29 C21        -5.0415    0.9876   -2.1532 C.ar      1 <0>        -0.0852
     30 C22        -5.7102    1.4460   -3.2727 C.ar      1 <0>        -0.1123
     31 C23        -5.6967    0.7033   -4.4386 C.ar      1 <0>        -0.0799
     32 C24        -5.0135   -0.4984   -4.4848 C.ar      1 <0>        -0.0928
     33 C25        -4.3400   -0.9542   -3.3657 C.ar      1 <0>        -0.0729
     34 Br1        -4.9952   -1.5151   -6.0791 Br        1 <0>        -0.0413
     35 H3          1.0039    1.9031    0.0027 H         1 <0>         0.0720
     36 H4         -0.5459    1.8868   -0.8726 H         1 <0>         0.0634
     37 H5         -0.5289    1.8773    0.9072 H         1 <0>         0.0648
     38 H6          0.2320   -0.1589    2.1382 H         1 <0>         0.0862
     39 H7         -0.2616   -2.4177    1.2181 H         1 <0>         0.1130
     40 H8          1.2928   -2.3939    0.3500 H         1 <0>         0.0633
     41 H9          0.8931   -2.2707    3.3749 H         1 <0>         0.0837
     42 H10         1.5764   -3.6293    2.4451 H         1 <0>         0.0986
     43 H11         2.4425   -0.0173    3.3712 H         1 <0>         0.0911
     44 H12         3.9544   -0.1712    2.4396 H         1 <0>         0.0818
     45 H13         2.6961   -0.3531    0.3467 H         1 <0>         0.0739
     46 H14         2.1633    1.1087    1.2124 H         1 <0>         0.0918
     47 H15         4.7385   -0.2853    4.2126 H         1 <0>         0.2131
     48 H16         6.5283   -0.3735    6.5619 H         1 <0>         0.1738
     49 H17         8.3631   -1.6419    7.5122 H         1 <0>         0.1684
     50 H18         8.4428   -4.3731    4.2421 H         1 <0>         0.1696
     51 H19        10.7927   -3.8712    8.0915 H         1 <0>         0.1248
     52 H20        10.3235   -2.2204    7.6190 H         1 <0>         0.0771
     53 H21         9.1605   -3.2682    8.4662 H         1 <0>         0.0770
     54 H22        -1.9529    0.3598   -1.7158 H         1 <0>         0.4029
     55 H23        -3.6152   -1.8030   -0.9840 H         1 <0>         0.0804
     56 H24        -4.1402   -0.3616   -0.0812 H         1 <0>         0.0822
     57 H25        -5.0526    1.5679   -1.2425 H         1 <0>         0.1318
     58 H26        -6.2437    2.3843   -3.2365 H         1 <0>         0.1370
     59 H27        -6.2198    1.0611   -5.3130 H         1 <0>         0.1369
     60 H28        -3.8032   -1.8907   -3.4025 H         1 <0>         0.1341
     61 H29         6.5014   -3.7727    2.3165 H         1 <0>         0.4596
@<TRIPOS>BOND
     1    1    2 1
     2    1   35 1
     3    1   36 1
     4    1   37 1
     5    2    3 1
     6    2    4 1
     7    2   24 1
     8    4    9 1
     9    4    5 1
    10    4   38 1
    11    5    6 1
    12    5   39 1
    13    5   40 1
    14    6    7 1
    15    6   41 1
    16    6   42 1
    17    7    8 1
    18    7   10 am
    19    8    9 1
    20    8   43 1
    21    8   44 1
    22    9   45 1
    23    9   46 1
    24   10   11 2
    25   10   12 1
    26   12   13 1
    27   12   21 1
    28   12   14 1
    29   14   15 2
    30   14   47 1
    31   15   20 ar
    32   15   16 ar
    33   16   17 ar
    34   16   48 1
    35   17   18 ar
    36   17   49 1
    37   18   19 ar
    38   18   22 1
    39   19   20 ar
    40   19   50 1
    41   20   21 2
    42   21   61 1
    43   22   23 1
    44   23   51 1
    45   23   52 1
    46   23   53 1
    47   24   25 2
    48   24   26 am
    49   26   27 1
    50   26   54 1
    51   27   28 1
    52   27   55 1
    53   27   56 1
    54   28   33 ar
    55   28   29 ar
    56   29   30 ar
    57   29   57 1
    58   30   31 ar
    59   30   58 1
    60   31   32 ar
    61   31   59 1
    62   32   33 ar
    63   32   34 1
    64   33   60 1
@<TRIPOS>MOLECULE
ZINC03620050
   61    63     0     0     0
SMALL
USER_CHARGES
6-bromo-3-(4-chlorophenyl)-N-(3-diethylamino-2-methyl-propyl)-4-hydroxy-2-oxo-1H-quinazoline-4-carboxamide
@<TRIPOS>ATOM
      1 C1         -2.7555    4.7530    8.5776 C.3       1 <0>        -0.1899
      2 C2         -1.5239    4.1654    7.8857 C.3       1 <0>        -0.0100
      3 C3          0.0742    4.6494    6.1323 C.3       1 <0>        -0.0127
      4 C4          1.0494    5.4493    6.9984 C.3       1 <0>        -0.1888
      5 C5         -2.2802    4.4500    5.6033 C.3       1 <0>        -0.0022
      6 C6         -2.2431    5.4261    4.4257 C.3       1 <0>        -0.1322
      7 H1         -1.2277    5.4843    4.0338 H         1 <0>         0.1019
      8 C7         -2.6877    6.8119    4.8977 C.3       1 <0>        -0.1734
      9 C8         -3.1868    4.9348    3.3261 C.3       1 <0>         0.1257
     10 N1         -3.0625    5.8025    2.1523 N.am      1 <0>        -0.7191
     11 C9         -3.8039    5.5597    1.0533 C.2       1 <0>         0.4941
     12 O1         -4.5740    4.6229    1.0361 O.2       1 <0>        -0.4995
     13 C10        -3.6760    6.4522   -0.1542 C.3       1 <0>         0.3959
     14 C11        -2.2770    6.2952   -0.7039 C.ar      1 <0>        -0.1761
     15 C12        -1.7997    5.0684   -1.1042 C.ar      1 <0>        -0.0280
     16 C13        -0.5098    4.9614   -1.5981 C.ar      1 <0>        -0.1167
     17 C14         0.2889    6.0871   -1.6979 C.ar      1 <0>        -0.0322
     18 C15        -0.1909    7.3202   -1.3018 C.ar      1 <0>        -0.1463
     19 C16        -1.4812    7.4314   -0.8008 C.ar      1 <0>         0.2020
     20 N2         -1.9842    8.6685   -0.3958 N.am      1 <0>        -0.6568
     21 C17        -3.2204    8.8274    0.0939 C.2       1 <0>         0.7109
     22 O2         -3.5748    9.9432    0.4222 O.2       1 <0>        -0.5334
     23 N3         -4.0889    7.8102    0.2389 N.am      1 <0>        -0.5435
     24 C18        -5.3692    8.0398    0.7565 C.ar      1 <0>         0.1452
     25 C19        -6.4786    7.9702   -0.0757 C.ar      1 <0>        -0.0739
     26 C20        -7.7410    8.1928    0.4384 C.ar      1 <0>        -0.1005
     27 C21        -7.8999    8.4949    1.7795 C.ar      1 <0>        -0.0218
     28 C22        -6.7955    8.5696    2.6099 C.ar      1 <0>        -0.1061
     29 C23        -5.5313    8.3431    2.1018 C.ar      1 <0>        -0.0868
     30 Cl1        -9.4873    8.7813    2.4210 Cl        1 <0>        -0.0552
     31 Br1         0.1570    3.2779   -2.1433 Br        1 <0>        -0.0246
     32 O3         -4.5936    5.9816   -1.1435 O.3       1 <0>        -0.5325
     33 H2         -2.8550    4.3190    9.5725 H         1 <0>         0.1076
     34 H3         -2.6435    5.8340    8.6623 H         1 <0>         0.0789
     35 H4         -3.6454    4.5248    7.9910 H         1 <0>         0.0808
     36 H5         -1.6863    3.1047    7.6941 H         1 <0>         0.1328
     37 H6         -0.6523    4.2892    8.5285 H         1 <0>         0.1309
     38 H7          0.3192    3.5891    6.1938 H         1 <0>         0.1336
     39 H8          0.1519    4.9808    5.0968 H         1 <0>         0.1275
     40 H9          0.7319    6.4913    7.0353 H         1 <0>         0.0783
     41 H10         1.0614    5.0371    8.0074 H         1 <0>         0.0816
     42 H11         2.0496    5.3891    6.5694 H         1 <0>         0.1071
     43 H12        -3.2769    4.4507    6.0445 H         1 <0>         0.1361
     44 H13        -2.0393    3.4469    5.2514 H         1 <0>         0.1379
     45 H14        -1.9704    7.1962    5.6228 H         1 <0>         0.0593
     46 H15        -2.7387    7.4875    4.0439 H         1 <0>         0.0819
     47 H16        -3.6709    6.7392    5.3628 H         1 <0>         0.0808
     48 H17        -4.2138    4.9611    3.6903 H         1 <0>         0.0851
     49 H18        -2.9245    3.9130    3.0520 H         1 <0>         0.0837
     50 H19        -2.4466    6.5517    2.1660 H         1 <0>         0.4015
     51 H20        -2.4263    4.1920   -1.0296 H         1 <0>         0.1434
     52 H21         1.2926    6.0009   -2.0872 H         1 <0>         0.1495
     53 H22         0.4360    8.1960   -1.3819 H         1 <0>         0.1501
     54 H23        -1.4123    9.4483   -0.4715 H         1 <0>         0.4345
     55 H24        -6.3547    7.7388   -1.1233 H         1 <0>         0.1446
     56 H25        -8.6045    8.1352   -0.2077 H         1 <0>         0.1444
     57 H26        -6.9221    8.8055    3.6562 H         1 <0>         0.1398
     58 H27        -4.6697    8.4014    2.7504 H         1 <0>         0.1263
     59 H28        -4.4698    5.0535   -1.3850 H         1 <0>         0.4029
     60 N4         -1.3006    4.8919    6.6181 N.4       1 <0>        -0.3980
     61 H29        -1.4230    5.8977    6.7841 H         1 <0>         0.4232
@<TRIPOS>BOND
     1    1    2 1
     2    1   33 1
     3    1   34 1
     4    1   35 1
     5    2   36 1
     6    2   37 1
     7    2   60 1
     8    3    4 1
     9    3   38 1
    10    3   39 1
    11    3   60 1
    12    4   40 1
    13    4   41 1
    14    4   42 1
    15    5    6 1
    16    5   43 1
    17    5   44 1
    18    5   60 1
    19    6    7 1
    20    6    8 1
    21    6    9 1
    22    8   45 1
    23    8   46 1
    24    8   47 1
    25    9   10 1
    26    9   48 1
    27    9   49 1
    28   10   11 am
    29   10   50 1
    30   11   12 2
    31   11   13 1
    32   13   23 1
    33   13   14 1
    34   13   32 1
    35   14   19 ar
    36   14   15 ar
    37   15   16 ar
    38   15   51 1
    39   16   17 ar
    40   16   31 1
    41   17   18 ar
    42   17   52 1
    43   18   19 ar
    44   18   53 1
    45   19   20 1
    46   20   21 am
    47   20   54 1
    48   21   22 2
    49   21   23 am
    50   23   24 1
    51   24   29 ar
    52   24   25 ar
    53   25   26 ar
    54   25   55 1
    55   26   27 ar
    56   26   56 1
    57   27   28 ar
    58   27   30 1
    59   28   29 ar
    60   28   57 1
    61   29   58 1
    62   32   59 1
    63   60   61 1
@<TRIPOS>MOLECULE
ZINC13500203
   73    78     0     0     0
SMALL
USER_CHARGES
7-[[[(1R)-1-(1-benzyltetrazol-5-yl)butyl]-cyclohexyl-amino]methyl]-5H-[1,3]dioxolo[4,5-g]quinolin-6-one
@<TRIPOS>ATOM
      1 C1         -1.2852    5.3265    0.7983 C.3       1 <0>        -0.1582
      2 C2         -1.3420    3.8897    1.3210 C.3       1 <0>        -0.1460
      3 C3         -0.3276    3.0308    0.5631 C.3       1 <0>        -0.1448
      4 C4         -0.2737    1.6350    1.1874 C.3       1 <0>         0.1154
      5 H1         -0.0741    1.7222    2.2555 H         1 <0>         0.1622
      6 C5          0.8241    0.8349    0.5349 C.2       1 <0>         0.1105
      7 N1          0.7673    0.2302   -0.6265 N.2       1 <0>        -0.2630
      8 N2          1.9031   -0.3418   -0.8334 N.2       1 <0>        -0.0470
      9 N3          2.6803   -0.1242    0.1696 N.2       1 <0>        -0.0518
     10 N4          2.0513    0.5977    1.0344 N.pl3     1 <0>        -0.2741
     11 C6          2.5743    1.0700    2.3187 C.3       1 <0>         0.1452
     12 C7          2.4053   -0.0089    3.3573 C.ar      1 <0>        -0.1384
     13 C8          1.2455   -0.0712    4.1068 C.ar      1 <0>        -0.1134
     14 C9          1.0885   -1.0637    5.0561 C.ar      1 <0>        -0.1179
     15 C10         2.0957   -1.9876    5.2631 C.ar      1 <0>        -0.0920
     16 C11         3.2576   -1.9222    4.5172 C.ar      1 <0>        -0.1105
     17 C12         3.4125   -0.9328    3.5643 C.ar      1 <0>        -0.0795
     18 C13        -2.0825    1.2128   -0.3658 C.3       1 <0>         0.0566
     19 C14        -3.2948    0.3509   -0.6072 C.2       1 <0>        -0.2657
     20 C15        -4.5378    0.8825   -0.4843 C.2       1 <0>         0.0636
     21 C16        -5.6940    0.0219   -0.7307 C.ar      1 <0>        -0.1495
     22 C17        -6.9995    0.5176   -0.6225 C.ar      1 <0>        -0.0318
     23 C18        -8.0688   -0.3179   -0.8576 C.ar      1 <0>         0.0124
     24 C19        -7.8546   -1.6583   -1.2033 C.ar      1 <0>         0.1248
     25 C20        -6.5691   -2.1564   -1.3105 C.ar      1 <0>        -0.1600
     26 C21        -5.4800   -1.3266   -1.0763 C.ar      1 <0>         0.2219
     27 N5         -4.1900   -1.8068   -1.1786 N.am      1 <0>        -0.6170
     28 H2         -4.0432   -2.7358   -1.4160 H         1 <0>         0.4275
     29 C22        -3.1339   -1.0057   -0.9543 C.2       1 <0>         0.5398
     30 O1         -2.0086   -1.4643   -1.0533 O.2       1 <0>        -0.5159
     31 O2         -9.0672   -2.2581   -1.3806 O.3       1 <0>        -0.2940
     32 C23       -10.0098   -1.1826   -1.5445 C.3       1 <0>         0.2100
     33 O3         -9.4151   -0.0895   -0.8207 O.3       1 <0>        -0.2975
     34 C24        -2.5344    1.3570    2.0086 C.3       1 <0>         0.0196
     35 C25        -1.8056    1.6267    3.3265 C.3       1 <0>        -0.1624
     36 C26        -2.8195    2.0429    4.3941 C.3       1 <0>        -0.1130
     37 C27        -3.8384    0.9194    4.5954 C.3       1 <0>        -0.1309
     38 C28        -4.5672    0.6497    3.2774 C.3       1 <0>        -0.1126
     39 C29        -3.5533    0.2335    2.2099 C.3       1 <0>        -0.1596
     40 H3         -1.5238    5.3359   -0.2653 H         1 <0>         0.0636
     41 H4         -2.0079    5.9383    1.3382 H         1 <0>         0.0701
     42 H5         -0.2836    5.7288    0.9495 H         1 <0>         0.0653
     43 H6         -2.3436    3.4873    1.1697 H         1 <0>         0.0699
     44 H7         -1.1034    3.8802    2.3845 H         1 <0>         0.0844
     45 H8         -0.6282    2.9502   -0.4815 H         1 <0>         0.1061
     46 H9          0.6573    3.4939    0.6230 H         1 <0>         0.1165
     47 H10         3.6321    1.3109    2.2138 H         1 <0>         0.1354
     48 H11         2.0277    1.9609    2.6281 H         1 <0>         0.1205
     49 H12         0.4604    0.6534    3.9482 H         1 <0>         0.1150
     50 H13         0.1808   -1.1146    5.6391 H         1 <0>         0.1305
     51 H14         1.9748   -2.7604    6.0078 H         1 <0>         0.1332
     52 H15         4.0447   -2.6438    4.6791 H         1 <0>         0.1354
     53 H16         4.3205   -0.8814    2.9817 H         1 <0>         0.1342
     54 H17        -2.3598    2.2631   -0.4554 H         1 <0>         0.1437
     55 H18        -1.3153    0.9754   -1.1028 H         1 <0>         0.1611
     56 H19        -4.6698    1.9197   -0.2138 H         1 <0>         0.1584
     57 H20        -7.1669    1.5507   -0.3559 H         1 <0>         0.1561
     58 H21        -6.4118   -3.1912   -1.5769 H         1 <0>         0.1557
     59 H22       -10.1206   -0.9283   -2.5986 H         1 <0>         0.0985
     60 H23       -10.9744   -1.4502   -1.1131 H         1 <0>         0.1454
     61 H24        -3.0501    2.2618    1.6868 H         1 <0>         0.1502
     62 H25        -1.2900    0.7219    3.6483 H         1 <0>         0.0886
     63 H26        -1.0797    2.4271    3.1831 H         1 <0>         0.0952
     64 H27        -3.3352    2.9477    4.0723 H         1 <0>         0.0781
     65 H28        -2.3003    2.2351    5.3330 H         1 <0>         0.0864
     66 H29        -4.5607    1.2160    5.3559 H         1 <0>         0.0807
     67 H30        -3.3227    0.0147    4.9172 H         1 <0>         0.0693
     68 H31        -5.0829    1.5545    2.9556 H         1 <0>         0.0756
     69 H32        -5.2931   -0.1507    3.4208 H         1 <0>         0.0836
     70 H33        -4.0726    0.0414    1.2709 H         1 <0>         0.0973
     71 H34        -3.0377   -0.6713    2.5317 H         1 <0>         0.0835
     72 N6         -1.5566    0.9291    0.9861 N.4       1 <0>        -0.3840
     73 H35        -1.3991   -0.0814    1.0775 H         1 <0>         0.4334
@<TRIPOS>BOND
     1    1    2 1
     2    1   40 1
     3    1   41 1
     4    1   42 1
     5    2    3 1
     6    2   43 1
     7    2   44 1
     8    3    4 1
     9    3   45 1
    10    3   46 1
    11    4    5 1
    12    4    6 1
    13    4   72 1
    14    6   10 1
    15    6    7 2
    16    7    8 1
    17    8    9 2
    18    9   10 1
    19   10   11 1
    20   11   12 1
    21   11   47 1
    22   11   48 1
    23   12   17 ar
    24   12   13 ar
    25   13   14 ar
    26   13   49 1
    27   14   15 ar
    28   14   50 1
    29   15   16 ar
    30   15   51 1
    31   16   17 ar
    32   16   52 1
    33   17   53 1
    34   18   19 1
    35   18   54 1
    36   18   55 1
    37   18   72 1
    38   19   29 1
    39   19   20 2
    40   20   21 1
    41   20   56 1
    42   21   26 ar
    43   21   22 ar
    44   22   23 ar
    45   22   57 1
    46   23   33 1
    47   23   24 ar
    48   24   25 ar
    49   24   31 1
    50   25   26 ar
    51   25   58 1
    52   26   27 1
    53   27   28 1
    54   27   29 am
    55   29   30 2
    56   31   32 1
    57   32   33 1
    58   32   59 1
    59   32   60 1
    60   34   39 1
    61   34   35 1
    62   34   61 1
    63   34   72 1
    64   35   36 1
    65   35   62 1
    66   35   63 1
    67   36   37 1
    68   36   64 1
    69   36   65 1
    70   37   38 1
    71   37   66 1
    72   37   67 1
    73   38   39 1
    74   38   68 1
    75   38   69 1
    76   39   70 1
    77   39   71 1
    78   72   73 1
@<TRIPOS>MOLECULE
ZINC38906205
   71    75     0     0     0
SMALL
USER_CHARGES

@<TRIPOS>ATOM
      1 C1         -0.1219    1.4756   -0.1184 C.3       1 <0>        -0.1187
      2 C2         -0.0791   -0.0306   -0.0965 C.ar      1 <0>        -0.0783
      3 C3          1.0804   -0.6824    0.2816 C.ar      1 <0>        -0.1076
      4 C4          1.1232   -2.0626    0.3024 C.ar      1 <0>        -0.1114
      5 C5         -0.0005   -2.7963   -0.0568 C.ar      1 <0>         0.1574
      6 C6         -1.1639   -2.1382   -0.4358 C.ar      1 <0>        -0.1065
      7 C7         -1.2013   -0.7578   -0.4493 C.ar      1 <0>        -0.1070
      8 N1          0.0394   -4.1929   -0.0374 N.pl3     1 <0>        -0.5734
      9 C8          0.1715   -5.0535    1.1503 C.3       1 <0>         0.4176
     10 H1          1.1134   -4.8566    1.6624 H         1 <0>         0.0792
     11 N2          0.1580   -6.4201    0.6005 N.pl3     1 <0>        -0.6507
     12 N3          0.0271   -6.2813   -0.7867 N.2       1 <0>        -0.3019
     13 C9         -0.0438   -5.0405   -1.1330 C.2       1 <0>         0.2563
     14 S1         -0.2197   -4.4886   -2.7970 S.3       1 <0>         0.0822
     15 C10        -0.2721   -6.0220   -3.7648 C.3       1 <0>        -0.1532
     16 C11        -0.4226   -5.6884   -5.2267 C.2       1 <0>         0.5544
     17 O1         -0.4880   -4.5306   -5.5808 O.2       1 <0>        -0.4547
     18 N4         -0.4844   -6.6771   -6.1405 N.am      1 <0>        -0.5528
     19 N5         -0.6243   -6.3671   -7.4996 N.2       1 <0>        -0.1258
     20 C12        -0.6843   -7.3275   -8.3874 C.2       1 <0>         0.0354
     21 C13        -0.8243   -7.0172   -9.7476 C.2       1 <0>         0.1302
     22 C14        -0.9088   -7.9125  -10.8112 C.ar      1 <0>        -0.1469
     23 C15        -0.8837   -9.3234  -10.8756 C.ar      1 <0>        -0.0245
     24 C16        -0.9873   -9.9439  -12.0776 C.ar      1 <0>        -0.1407
     25 C17        -1.1196   -9.2209  -13.2667 C.ar      1 <0>         0.0412
     26 C18        -1.1512   -7.8668  -13.2809 C.ar      1 <0>        -0.1998
     27 C19        -1.0481   -7.1454  -12.0616 C.ar      1 <0>         0.3141
     28 N6         -1.0519   -5.8532  -11.8109 N.pl3     1 <0>        -0.5888
     29 C20        -0.9218   -5.6401  -10.3663 C.3       1 <0>         0.0703
     30 C21        -0.9911   -4.8453    2.0861 C.ar      1 <0>        -0.1326
     31 C22        -0.7769   -4.3288    3.3503 C.ar      1 <0>        -0.0932
     32 C23        -1.8434   -4.1378    4.2088 C.ar      1 <0>        -0.1163
     33 C24        -3.1242   -4.4629    3.8029 C.ar      1 <0>        -0.0534
     34 C25        -3.3386   -4.9786    2.5384 C.ar      1 <0>        -0.1258
     35 C26        -2.2726   -5.1655    1.6784 C.ar      1 <0>        -0.0774
     36 C27        -4.2868   -4.2556    4.7391 C.3       1 <0>        -0.0325
     37 C28        -4.3823   -2.7753    5.1137 C.3       1 <0>        -0.1391
     38 C29        -5.5810   -4.6918    4.0495 C.3       1 <0>        -0.1450
     39 C30        -4.0773   -5.0895    6.0048 C.3       1 <0>        -0.1395
     40 H2         -0.4435    1.8441    0.8557 H         1 <0>         0.0737
     41 H3          0.8713    1.8640   -0.3440 H         1 <0>         0.0690
     42 H4         -0.8243    1.8081   -0.8827 H         1 <0>         0.0685
     43 H5          1.9536   -0.1115    0.5608 H         1 <0>         0.1287
     44 H6          2.0293   -2.5710    0.5971 H         1 <0>         0.1241
     45 H7         -2.0392   -2.7055   -0.7160 H         1 <0>         0.1235
     46 H8         -2.1066   -0.2456   -0.7399 H         1 <0>         0.1277
     47 H9          0.2266   -7.2493    1.0991 H         1 <0>         0.4476
     48 H10         0.6521   -6.5794   -3.6125 H         1 <0>         0.1363
     49 H11        -1.1189   -6.6271   -3.4411 H         1 <0>         0.1357
     50 H12        -0.4320   -7.6034   -5.8573 H         1 <0>         0.4095
     51 H13        -0.6260   -8.3588   -8.0720 H         1 <0>         0.1607
     52 H14        -0.7821   -9.9057   -9.9717 H         1 <0>         0.1566
     53 H15        -0.9668  -11.0230  -12.1167 H         1 <0>         0.1562
     54 H16        -1.1986   -9.7572  -14.2008 H         1 <0>         0.1608
     55 H17        -1.2547   -7.3372  -14.2164 H         1 <0>         0.1608
     56 H18        -1.7972   -5.1170   -9.9815 H         1 <0>         0.1787
     57 H19        -0.0186   -5.0683  -10.1534 H         1 <0>         0.1780
     58 H20         0.2237   -4.0748    3.6675 H         1 <0>         0.1213
     59 H21        -1.6760   -3.7350    5.1968 H         1 <0>         0.1235
     60 H22        -4.3392   -5.2329    2.2214 H         1 <0>         0.1257
     61 H23        -2.4405   -5.5649    0.6891 H         1 <0>         0.1120
     62 H24        -4.5315   -2.1813    4.2120 H         1 <0>         0.0561
     63 H25        -5.2232   -2.6254    5.7909 H         1 <0>         0.0610
     64 H26        -3.4603   -2.4646    5.6050 H         1 <0>         0.0575
     65 H27        -5.5130   -5.7464    3.7826 H         1 <0>         0.0579
     66 H28        -6.4219   -4.5418    4.7267 H         1 <0>         0.0608
     67 H29        -5.7303   -4.0977    3.1478 H         1 <0>         0.0578
     68 H30        -3.1553   -4.7788    6.4961 H         1 <0>         0.0577
     69 H31        -4.9182   -4.9395    6.6819 H         1 <0>         0.0611
     70 H32        -4.0093   -6.1441    5.7379 H         1 <0>         0.0561
     71 H33        -1.1322   -5.1525  -12.4768 H         1 <0>         0.4550
@<TRIPOS>BOND
     1    1    2 1
     2    1   40 1
     3    1   41 1
     4    1   42 1
     5    2    7 ar
     6    2    3 ar
     7    3    4 ar
     8    3   43 1
     9    4    5 ar
    10    4   44 1
    11    5    6 ar
    12    5    8 1
    13    6    7 ar
    14    6   45 1
    15    7   46 1
    16    8   13 1
    17    8    9 1
    18    9   10 1
    19    9   11 1
    20    9   30 1
    21   11   12 1
    22   11   47 1
    23   12   13 2
    24   13   14 1
    25   14   15 1
    26   15   16 1
    27   15   48 1
    28   15   49 1
    29   16   17 2
    30   16   18 am
    31   18   19 1
    32   18   50 1
    33   19   20 2
    34   20   21 1
    35   20   51 1
    36   21   29 1
    37   21   22 2
    38   22   27 ar
    39   22   23 ar
    40   23   24 ar
    41   23   52 1
    42   24   25 ar
    43   24   53 1
    44   25   26 ar
    45   25   54 1
    46   26   27 ar
    47   26   55 1
    48   27   28 2
    49   28   29 1
    50   28   71 1
    51   29   56 1
    52   29   57 1
    53   30   35 ar
    54   30   31 ar
    55   31   32 ar
    56   31   58 1
    57   32   33 ar
    58   32   59 1
    59   33   34 ar
    60   33   36 1
    61   34   35 ar
    62   34   60 1
    63   35   61 1
    64   36   37 1
    65   36   38 1
    66   36   39 1
    67   37   62 1
    68   37   63 1
    69   37   64 1
    70   38   65 1
    71   38   66 1
    72   38   67 1
    73   39   68 1
    74   39   69 1
    75   39   70 1
@<TRIPOS>MOLECULE
ZINC44873935
   69    72     0     0     0
SMALL
USER_CHARGES

@<TRIPOS>ATOM
      1 C1          0.0265    1.5031    0.0270 C.3       1 <0>        -0.1198
      2 C2          0.0350   -0.0038    0.0142 C.ar      1 <0>        -0.0745
      3 C3         -0.7374   -0.6903   -0.9048 C.ar      1 <0>        -0.1156
      4 C4         -0.7320   -2.0712   -0.9193 C.ar      1 <0>        -0.1144
      5 C5          0.0506   -2.7707   -0.0093 C.ar      1 <0>         0.1179
      6 C6          0.8252   -2.0780    0.9125 C.ar      1 <0>        -0.0804
      7 C7          0.8195   -0.6970    0.9178 C.ar      1 <0>        -0.1093
      8 N1          0.0581   -4.1674   -0.0209 N.pl3     1 <0>        -0.9264
      9 C8          0.4842   -4.8876   -1.2233 C.3       1 <0>         0.1049
     10 C9          1.9851   -5.0235   -1.2221 C.2       1 <0>         0.4990
     11 O1          2.6348   -4.5639   -0.3069 O.2       1 <0>        -0.5071
     12 N2          2.6053   -5.6557   -2.2380 N.am      1 <0>        -0.7304
     13 C10         4.0644   -5.7878   -2.2367 C.3       1 <0>         0.1512
     14 C11         4.5027   -6.5287   -3.4736 C.ar      1 <0>        -0.0692
     15 C12         4.6039   -7.9072   -3.4541 C.ar      1 <0>        -0.0951
     16 C13         5.0060   -8.5869   -4.5887 C.ar      1 <0>        -0.0966
     17 C14         5.3065   -7.8880   -5.7429 C.ar      1 <0>        -0.1536
     18 C15         5.2045   -6.5096   -5.7627 C.ar      1 <0>        -0.0930
     19 C16         4.7983   -5.8303   -4.6294 C.ar      1 <0>        -0.0947
     20 C17         5.7458   -8.6289   -6.9795 C.3       1 <0>         0.0427
     21 N3          4.5687   -8.9736   -7.7880 N.4       1 <0>        -0.3810
     22 C18         3.7228   -9.9131   -7.0421 C.3       1 <0>        -0.0133
     23 C19         2.4554  -10.2126   -7.8456 C.3       1 <0>        -0.1443
     24 C20         2.8450  -10.8315   -9.1911 C.3       1 <0>        -0.1396
     25 C21         3.7869   -9.8751   -9.9282 C.3       1 <0>        -0.1460
     26 C22         5.0049   -9.5880   -9.0476 C.3       1 <0>        -0.0074
     27 S1         -0.4147   -5.0091    1.3246 S.o2      1 <0>         2.6869
     28 O2          0.3028   -6.2356    1.3093 O.2       1 <0>        -0.9423
     29 O3         -0.3484   -4.1012    2.4157 O.2       1 <0>        -0.9304
     30 C23        -2.1154   -5.4180    1.1123 C.ar      1 <0>        -0.6957
     31 C24        -3.0952   -4.5495    1.5560 C.ar      1 <0>         0.0166
     32 C25        -4.4294   -4.8689    1.3897 C.ar      1 <0>        -0.1713
     33 C26        -4.7847   -6.0594    0.7784 C.ar      1 <0>         0.1621
     34 C27        -3.8026   -6.9285    0.3345 C.ar      1 <0>        -0.1745
     35 C28        -2.4690   -6.6045    0.4972 C.ar      1 <0>         0.0047
     36 F1         -6.0887   -6.3729    0.6157 F         1 <0>        -0.1249
     37 H1          0.8042    1.8765   -0.6392 H         1 <0>         0.0732
     38 H2         -0.9451    1.8638   -0.3105 H         1 <0>         0.0692
     39 H3          0.2142    1.8589    1.0401 H         1 <0>         0.0705
     40 H4         -1.3459   -0.1458   -1.6117 H         1 <0>         0.1280
     41 H5         -1.3357   -2.6067   -1.6370 H         1 <0>         0.1259
     42 H6          1.4345   -2.6188    1.6215 H         1 <0>         0.1325
     43 H7          1.4249   -0.1578    1.6313 H         1 <0>         0.1306
     44 H8          0.0297   -5.8783   -1.2336 H         1 <0>         0.1144
     45 H9          0.1702   -4.3346   -2.1086 H         1 <0>         0.1183
     46 H10         2.0857   -6.0233   -2.9699 H         1 <0>         0.4002
     47 H11         4.5189   -4.7971   -2.2264 H         1 <0>         0.0850
     48 H12         4.3784   -6.3409   -1.3515 H         1 <0>         0.0863
     49 H13         4.3691   -8.4532   -2.5524 H         1 <0>         0.1395
     50 H14         5.0856   -9.6638   -4.5733 H         1 <0>         0.1339
     51 H15         5.4396   -5.9636   -6.6644 H         1 <0>         0.1339
     52 H16         4.7150   -4.7536   -4.6459 H         1 <0>         0.1383
     53 H17         6.4150   -7.9968   -7.5633 H         1 <0>         0.1376
     54 H18         6.2678   -9.5411   -6.6904 H         1 <0>         0.1358
     55 H19         4.2719  -10.8392   -6.8719 H         1 <0>         0.1278
     56 H20         3.4491   -9.4726   -6.0834 H         1 <0>         0.1304
     57 H21         1.8296  -10.9118   -7.2910 H         1 <0>         0.1111
     58 H22         1.9054   -9.2872   -8.0162 H         1 <0>         0.0863
     59 H23         3.3501  -11.7825   -9.0224 H         1 <0>         0.0819
     60 H24         1.9491  -10.9946   -9.7903 H         1 <0>         0.0940
     61 H25         4.1127  -10.3329  -10.8621 H         1 <0>         0.1125
     62 H26         3.2645   -8.9426  -10.1420 H         1 <0>         0.0871
     63 H27         5.6777   -8.9075   -9.5694 H         1 <0>         0.1304
     64 H28         5.5267  -10.5211   -8.8346 H         1 <0>         0.1289
     65 H29        -2.8178   -3.6211    2.0331 H         1 <0>         0.1525
     66 H30        -5.1947   -4.1904    1.7367 H         1 <0>         0.1508
     67 H31        -4.0785   -7.8575   -0.1422 H         1 <0>         0.1487
     68 H32        -1.7027   -7.2802    0.1470 H         1 <0>         0.1484
     69 H33         4.0424   -8.1362   -7.9880 H         1 <0>         0.4213
@<TRIPOS>BOND
     1    1    2 1
     2    1   37 1
     3    1   38 1
     4    1   39 1
     5    2    7 ar
     6    2    3 ar
     7    3    4 ar
     8    3   40 1
     9    4    5 ar
    10    4   41 1
    11    5    6 ar
    12    5    8 1
    13    6    7 ar
    14    6   42 1
    15    7   43 1
    16    8    9 1
    17    8   27 1
    18    9   10 1
    19    9   44 1
    20    9   45 1
    21   10   11 2
    22   10   12 am
    23   12   13 1
    24   12   46 1
    25   13   14 1
    26   13   47 1
    27   13   48 1
    28   14   19 ar
    29   14   15 ar
    30   15   16 ar
    31   15   49 1
    32   16   17 ar
    33   16   50 1
    34   17   18 ar
    35   17   20 1
    36   18   19 ar
    37   18   51 1
    38   19   52 1
    39   20   21 1
    40   20   53 1
    41   20   54 1
    42   21   26 1
    43   21   22 1
    44   21   69 1
    45   22   23 1
    46   22   55 1
    47   22   56 1
    48   23   24 1
    49   23   57 1
    50   23   58 1
    51   24   25 1
    52   24   59 1
    53   24   60 1
    54   25   26 1
    55   25   61 1
    56   25   62 1
    57   26   63 1
    58   26   64 1
    59   27   28 2
    60   27   29 2
    61   27   30 1
    62   30   35 ar
    63   30   31 ar
    64   31   32 ar
    65   31   65 1
    66   32   33 ar
    67   32   66 1
    68   33   34 ar
    69   33   36 1
    70   34   35 ar
    71   34   67 1
    72   35   68 1
@<TRIPOS>MOLECULE
ZINC63426752
   71    74     0     0     0
SMALL
USER_CHARGES

@<TRIPOS>ATOM
      1 C1          1.2642    1.2271   -0.1580 C.3       1 <0>        -0.1179
      2 C2          0.6279   -0.1366   -0.0790 C.ar      1 <0>        -0.0662
      3 C3          0.0386   -0.6900   -1.2012 C.ar      1 <0>        -0.1289
      4 C4         -0.5459   -1.9411   -1.1330 C.ar      1 <0>        -0.0946
      5 C5         -0.5429   -2.6425    0.0570 C.ar      1 <0>        -0.1224
      6 C6          0.0478   -2.0897    1.1855 C.ar      1 <0>         0.1430
      7 C7          0.6388   -0.8349    1.1123 C.ar      1 <0>        -0.1271
      8 N1          0.0521   -2.7974    2.3926 N.am      1 <0>        -0.6614
      9 C8          0.1503   -2.1345    3.5620 C.2       1 <0>         0.5306
     10 O1          0.1340   -0.9218    3.5749 O.2       1 <0>        -0.4876
     11 C9          0.2802   -2.9001    4.8535 C.3       1 <0>        -0.1487
     12 S1          0.3911   -1.7344    6.2389 S.3       1 <0>        -0.0351
     13 C10         0.5409   -2.8008    7.6987 C.3       1 <0>         0.1238
     14 H1          0.6029   -2.1958    8.6033 H         1 <0>         0.1646
     15 N2         -0.6021   -3.7197    7.7778 N.2       1 <0>        -0.1145
     16 N3         -0.2113   -4.8617    8.0526 N.2       1 <0>        -0.1473
     17 C11         1.2501   -4.8736    8.1976 C.3       1 <0>         0.1005
     18 H2          1.5253   -4.8899    9.2522 H         1 <0>         0.1510
     19 O2          1.7029   -3.6480    7.5825 O.3       1 <0>        -0.3517
     20 C12         1.8451   -6.0844    7.4759 C.3       1 <0>         0.1990
     21 H3          1.5712   -6.0496    6.4214 H         1 <0>         0.1159
     22 C13         1.3006   -7.3698    8.1021 C.3       1 <0>        -0.1177
     23 C14         1.7891   -8.5583    7.3148 C.2       1 <0>         0.0682
     24 C15         2.8732   -9.3214    7.5830 C.ar      1 <0>        -0.1634
     25 C16         3.8838   -9.2744    8.6465 C.ar      1 <0>        -0.0204
     26 C17         4.8746  -10.1949    8.6509 C.ar      1 <0>        -0.1509
     27 C18         4.9607  -11.1899    7.6675 C.ar      1 <0>         0.0579
     28 C19         4.0699  -11.2974    6.6590 C.ar      1 <0>        -0.2100
     29 C20         2.9861  -10.3822    6.5567 C.ar      1 <0>         0.3292
     30 N4          2.0099  -10.2790    5.6878 N.pl3     1 <0>        -0.5858
     31 C21         1.1628   -9.1432    6.0687 C.3       1 <0>         0.0611
     32 N5          3.3044   -6.0598    7.6024 N.am      1 <0>        -0.7099
     33 C22         3.8757   -6.0949    8.8226 C.2       1 <0>         0.6548
     34 O3          3.1804   -6.1470    9.8178 O.2       1 <0>        -0.5604
     35 O4          5.2169   -6.0722    8.9389 O.3       1 <0>        -0.3494
     36 C23         5.7541   -6.1120   10.2625 C.3       1 <0>         0.1352
     37 C24         5.3028   -7.3981   10.9576 C.3       1 <0>        -0.1942
     38 C25         7.2822   -6.0785   10.1940 C.3       1 <0>        -0.1445
     39 C26         5.2524   -4.9020   11.0531 C.3       1 <0>        -0.1892
     40 C27        -1.1807   -4.0059    0.1306 C.3       1 <0>        -0.1133
     41 H4          2.3123    1.1233   -0.4388 H         1 <0>         0.0728
     42 H5          0.7455    1.8273   -0.9056 H         1 <0>         0.0703
     43 H6          1.1951    1.7171    0.8132 H         1 <0>         0.0695
     44 H7          0.0347   -0.1435   -2.1327 H         1 <0>         0.1263
     45 H8         -1.0055   -2.3704   -2.0110 H         1 <0>         0.1285
     46 H9          1.1027   -0.4040    1.9872 H         1 <0>         0.1447
     47 H10        -0.0156   -3.7650    2.3878 H         1 <0>         0.4093
     48 H11        -0.5922   -3.5400    4.9859 H         1 <0>         0.1181
     49 H12         1.1801   -3.5145    4.8227 H         1 <0>         0.1165
     50 H13         1.6489   -7.4481    9.1320 H         1 <0>         0.1381
     51 H14         0.2109   -7.3476    8.0878 H         1 <0>         0.1392
     52 H15         3.8370   -8.5159    9.4138 H         1 <0>         0.1586
     53 H16         5.6193  -10.1622    9.4325 H         1 <0>         0.1562
     54 H17         5.7733  -11.8995    7.7185 H         1 <0>         0.1621
     55 H18         4.1809  -12.0825    5.9257 H         1 <0>         0.1617
     56 H19         0.1491   -9.4826    6.2815 H         1 <0>         0.1775
     57 H20         1.1515   -8.4013    5.2702 H         1 <0>         0.1707
     58 H21         3.8595   -6.0181    6.8080 H         1 <0>         0.4179
     59 H22         5.6602   -8.2602   10.3944 H         1 <0>         0.0594
     60 H23         5.7125   -7.4284   11.9672 H         1 <0>         0.0821
     61 H24         4.2142   -7.4220   11.0065 H         1 <0>         0.0870
     62 H25         7.6036   -5.1622    9.6988 H         1 <0>         0.0710
     63 H26         7.6919   -6.1088   11.2036 H         1 <0>         0.0873
     64 H27         7.6396   -6.9405    9.6307 H         1 <0>         0.0675
     65 H28         4.1637   -4.9258   11.1019 H         1 <0>         0.0861
     66 H29         5.6621   -4.9323   12.0627 H         1 <0>         0.0770
     67 H30         5.5738   -3.9857   10.5579 H         1 <0>         0.0637
     68 H31        -0.4386   -4.7675   -0.1090 H         1 <0>         0.0689
     69 H32        -1.5624   -4.1746    1.1376 H         1 <0>         0.0590
     70 H33        -2.0022   -4.0618   -0.5835 H         1 <0>         0.0748
     71 H34         1.8689  -10.8590    4.9232 H         1 <0>         0.4561
@<TRIPOS>BOND
     1    1    2 1
     2    1   41 1
     3    1   42 1
     4    1   43 1
     5    2    7 ar
     6    2    3 ar
     7    3    4 ar
     8    3   44 1
     9    4    5 ar
    10    4   45 1
    11    5    6 ar
    12    5   40 1
    13    6    7 ar
    14    6    8 1
    15    7   46 1
    16    8    9 am
    17    8   47 1
    18    9   10 2
    19    9   11 1
    20   11   12 1
    21   11   48 1
    22   11   49 1
    23   12   13 1
    24   13   14 1
    25   13   19 1
    26   13   15 1
    27   15   16 2
    28   16   17 1
    29   17   18 1
    30   17   19 1
    31   17   20 1
    32   20   21 1
    33   20   22 1
    34   20   32 1
    35   22   23 1
    36   22   50 1
    37   22   51 1
    38   23   31 1
    39   23   24 2
    40   24   29 ar
    41   24   25 ar
    42   25   26 ar
    43   25   52 1
    44   26   27 ar
    45   26   53 1
    46   27   28 ar
    47   27   54 1
    48   28   29 ar
    49   28   55 1
    50   29   30 2
    51   30   31 1
    52   30   71 1
    53   31   56 1
    54   31   57 1
    55   32   33 am
    56   32   58 1
    57   33   34 2
    58   33   35 1
    59   35   36 1
    60   36   37 1
    61   36   38 1
    62   36   39 1
    63   37   59 1
    64   37   60 1
    65   37   61 1
    66   38   62 1
    67   38   63 1
    68   38   64 1
    69   39   65 1
    70   39   66 1
    71   39   67 1
    72   40   68 1
    73   40   69 1
    74   40   70 1
@<TRIPOS>MOLECULE
ZINC12655062
   76    80     0     0     0
SMALL
USER_CHARGES
(8S,9R,10R,13S,14R,17R)-17-[2-[(2-ethyl-3-hydroxy-6-methyl-4-pyridyl)amino]acetyl]-17-hydroxy-10,13-dimethyl-2,6,7,8,9,11,12,14,15,16-decahydro-1H-cyclopenta[a]phenanthren-3-one
@<TRIPOS>ATOM
      1 C1          5.9677   11.9054   -4.9132 C.3       1 <0>        -0.1541
      2 C2          6.3631   10.7915   -5.8847 C.3       1 <0>        -0.1065
      3 C3          5.6324    9.5248   -5.5207 C.ar      1 <0>         0.1778
      4 C4          6.2035    8.6397   -4.6242 C.ar      1 <0>         0.0281
      5 C5          5.5164    7.4656   -4.2999 C.ar      1 <0>         0.3092
      6 C6          4.2744    7.2442   -4.8904 C.ar      1 <0>        -0.2139
      7 C7          3.7729    8.1808   -5.7712 C.ar      1 <0>         0.2150
      8 C8          2.4299    7.9507   -6.4150 C.3       1 <0>        -0.1507
      9 N1          6.0576    6.5438   -3.4044 N.pl3     1 <0>        -0.6720
     10 C9          5.3183    5.3230   -3.0737 C.3       1 <0>         0.0517
     11 C10         6.1155    4.5034   -2.0919 C.2       1 <0>         0.3344
     12 O1          7.1902    4.8982   -1.7082 O.2       1 <0>        -0.4127
     13 C11         5.5714    3.1911   -1.5891 C.3       1 <0>         0.1016
     14 C12         6.2455    2.0108   -2.3220 C.3       1 <0>        -0.1370
     15 C13         6.4609    0.8998   -1.2771 C.3       1 <0>        -0.1216
     16 C14         5.8751    1.4380    0.0567 C.3       1 <0>        -0.0718
     17 H1          6.4356    1.0914    0.9249 H         1 <0>         0.0887
     18 C15         5.9858    2.9571   -0.1245 C.3       1 <0>        -0.0296
     19 C16         5.1243    3.7224    0.8525 C.3       1 <0>        -0.1026
     20 C17         3.6735    3.2580    0.7650 C.3       1 <0>        -0.1323
     21 C18         3.6058    1.7633    1.1148 C.3       1 <0>        -0.0590
     22 H2          4.0054    1.6032    2.1161 H         1 <0>         0.0725
     23 C19         4.4161    0.9661    0.1092 C.3       1 <0>        -0.0716
     24 H3          3.9744    1.1059   -0.8775 H         1 <0>         0.0859
     25 C20         4.4356   -0.5282    0.4201 C.3       1 <0>        -0.1136
     26 C21         3.1503   -1.0103    1.0758 C.3       1 <0>        -0.0961
     27 C22         2.0149   -0.0998    0.6798 C.2       1 <0>        -0.0109
     28 C23         0.9596   -0.5785    0.0289 C.2       1 <0>        -0.2438
     29 C24        -0.1397    0.2987   -0.3691 C.2       1 <0>         0.3857
     30 O2         -1.1060   -0.1607   -0.9412 O.2       1 <0>        -0.4632
     31 C25        -0.0727    1.7751   -0.0680 C.3       1 <0>        -0.1652
     32 C26         1.3975    2.2035   -0.0060 C.3       1 <0>        -0.1015
     33 C27         2.1161    1.3566    1.0459 C.3       1 <0>        -0.0326
     34 C28         1.4679    1.5849    2.4128 C.3       1 <0>        -0.1435
     35 C29         7.4478    3.3690    0.0589 C.3       1 <0>        -0.1416
     36 O3          4.1493    3.1494   -1.7231 O.3       1 <0>        -0.5111
     37 O4          7.4172    8.9049   -4.0701 O.3       1 <0>        -0.4566
     38 H4          4.8928   12.0758   -4.9738 H         1 <0>         0.0604
     39 H5          6.2324   11.6124   -3.8973 H         1 <0>         0.0726
     40 H6          6.4962   12.8217   -5.1765 H         1 <0>         0.0854
     41 H7          7.4380   10.6212   -5.8241 H         1 <0>         0.1147
     42 H8          6.0984   11.0845   -6.9006 H         1 <0>         0.0999
     43 H9          3.7113    6.3515   -4.6618 H         1 <0>         0.1826
     44 H10         1.6485    8.3836   -5.7903 H         1 <0>         0.1156
     45 H11         2.4124    8.4222   -7.3976 H         1 <0>         0.0978
     46 H12         2.2573    6.8799   -6.5228 H         1 <0>         0.1137
     47 H13         6.9235    6.7108   -3.0006 H         1 <0>         0.4319
     48 H14         5.1653    4.7902   -3.9060 H         1 <0>         0.1051
     49 H15         4.3584    5.5884   -2.6305 H         1 <0>         0.1249
     50 H16         7.2032    2.3216   -2.7396 H         1 <0>         0.0752
     51 H17         5.5900    1.6543   -3.1166 H         1 <0>         0.0808
     52 H18         7.5252    0.6943   -1.1629 H         1 <0>         0.0698
     53 H19         5.9351   -0.0062   -1.5786 H         1 <0>         0.0771
     54 H20         5.1759    4.7862    0.6208 H         1 <0>         0.0534
     55 H21         5.4944    3.5570    1.8643 H         1 <0>         0.0666
     56 H22         3.3012    3.4129   -0.2477 H         1 <0>         0.1156
     57 H23         3.0641    3.8253    1.4685 H         1 <0>         0.0580
     58 H24         5.2711   -0.7376    1.0881 H         1 <0>         0.0666
     59 H25         4.5834   -1.0774   -0.5098 H         1 <0>         0.0641
     60 H26         3.2672   -0.9957    2.1594 H         1 <0>         0.0833
     61 H27         2.9332   -2.0265    0.7468 H         1 <0>         0.0767
     62 H28         0.9136   -1.6309   -0.2092 H         1 <0>         0.1298
     63 H29        -0.5439    2.2839   -0.7884 H         1 <0>         0.0836
     64 H30        -0.5516    1.9741    0.8907 H         1 <0>         0.1019
     65 H31         1.8638    2.0499   -0.9792 H         1 <0>         0.0768
     66 H32         1.4596    3.2566    0.2684 H         1 <0>         0.0832
     67 H33         1.9822    0.9849    3.1636 H         1 <0>         0.0610
     68 H34         1.5411    2.6396    2.6780 H         1 <0>         0.0658
     69 H35         0.4186    1.2928    2.3707 H         1 <0>         0.0596
     70 H36         7.8400    2.9202    0.9715 H         1 <0>         0.0582
     71 H37         8.0319    3.0257   -0.7949 H         1 <0>         0.0601
     72 H38         7.5132    4.4547    0.1309 H         1 <0>         0.0709
     73 H39         3.8350    3.2910   -2.6265 H         1 <0>         0.3623
     74 H40         8.1651    8.5642   -4.5796 H         1 <0>         0.4046
     75 N2          4.4207    9.3285   -6.1093 N.ar      1 <0>        -0.5151
     76 H41         4.0197   10.0058   -6.7687 H         1 <0>         0.4702
@<TRIPOS>BOND
     1    1    2 1
     2    1   38 1
     3    1   39 1
     4    1   40 1
     5    2    3 1
     6    2   41 1
     7    2   42 1
     8    3    4 ar
     9    3   75 ar
    10    4    5 ar
    11    4   37 1
    12    5    6 ar
    13    5    9 1
    14    6    7 ar
    15    6   43 1
    16    7    8 1
    17    7   75 ar
    18    8   44 1
    19    8   45 1
    20    8   46 1
    21    9   10 1
    22    9   47 1
    23   10   11 1
    24   10   48 1
    25   10   49 1
    26   11   12 2
    27   11   13 1
    28   13   18 1
    29   13   14 1
    30   13   36 1
    31   14   15 1
    32   14   50 1
    33   14   51 1
    34   15   16 1
    35   15   52 1
    36   15   53 1
    37   16   17 1
    38   16   23 1
    39   16   18 1
    40   18   19 1
    41   18   35 1
    42   19   20 1
    43   19   54 1
    44   19   55 1
    45   20   21 1
    46   20   56 1
    47   20   57 1
    48   21   22 1
    49   21   33 1
    50   21   23 1
    51   23   24 1
    52   23   25 1
    53   25   26 1
    54   25   58 1
    55   25   59 1
    56   26   27 1
    57   26   60 1
    58   26   61 1
    59   27   33 1
    60   27   28 2
    61   28   29 1
    62   28   62 1
    63   29   30 2
    64   29   31 1
    65   31   32 1
    66   31   63 1
    67   31   64 1
    68   32   33 1
    69   32   65 1
    70   32   66 1
    71   33   34 1
    72   34   67 1
    73   34   68 1
    74   34   69 1
    75   35   70 1
    76   35   71 1
    77   35   72 1
    78   36   73 1
    79   37   74 1
    80   75   76 1
@<TRIPOS>MOLECULE
ZINC38556122
   60    64     0     0     0
SMALL
USER_CHARGES

@<TRIPOS>ATOM
      1 C1          0.4206    1.3812    0.3413 C.3       1 <0>        -0.1129
      2 C2          0.3368   -0.1167    0.1979 C.ar      1 <0>        -0.1211
      3 C3          0.1827   -0.6822   -1.0546 C.ar      1 <0>        -0.0768
      4 C4          0.1056   -2.0545   -1.1895 C.ar      1 <0>        -0.1705
      5 C5          0.1831   -2.8668   -0.0654 C.ar      1 <0>         0.2137
      6 C6          0.3379   -2.2954    1.1913 C.ar      1 <0>        -0.1659
      7 C7          0.4199   -0.9227    1.3185 C.ar      1 <0>        -0.0747
      8 N1          0.1050   -4.2550   -0.1982 N.pl3     1 <0>        -0.6329
      9 C8          0.2802   -5.2546    0.8701 C.3       1 <0>         0.3077
     10 H1         -0.4717   -5.1080    1.6456 H         1 <0>         0.1182
     11 N2          0.1057   -6.5826    0.2390 N.3       1 <0>        -0.4732
     12 N3         -0.7024   -6.3139   -0.9610 N.3       1 <0>        -0.4761
     13 C9         -0.1758   -5.0104   -1.4361 C.3       1 <0>         0.2741
     14 H2         -0.9232   -4.4928   -2.0373 H         1 <0>         0.1144
     15 S1          1.3482   -5.2561   -2.3889 S.3       1 <0>        -0.1428
     16 C10         0.7627   -5.7482   -4.0338 C.3       1 <0>        -0.1295
     17 C11         1.9375   -5.8676   -4.9702 C.2       1 <0>         0.5495
     18 O1          3.0589   -5.6429   -4.5676 O.2       1 <0>        -0.4496
     19 N4          1.7415   -6.2241   -6.2551 N.am      1 <0>        -0.5544
     20 N5          2.8337   -6.3351   -7.1256 N.2       1 <0>        -0.1261
     21 C12         2.6433   -6.6814   -8.3738 C.2       1 <0>         0.0344
     22 C13         3.7364   -6.7925   -9.2450 C.2       1 <0>         0.1298
     23 C14         3.7067   -7.1420  -10.5929 C.ar      1 <0>        -0.1469
     24 C15         2.6506   -7.4765  -11.4693 C.ar      1 <0>        -0.0249
     25 C16         2.9210   -7.7816  -12.7632 C.ar      1 <0>        -0.1403
     26 C17         4.2277   -7.7745  -13.2602 C.ar      1 <0>         0.0410
     27 C18         5.2889   -7.4636  -12.4780 C.ar      1 <0>        -0.1995
     28 C19         5.0859   -7.1329  -11.1115 C.ar      1 <0>         0.3142
     29 N6          5.9332   -6.8011  -10.1604 N.pl3     1 <0>        -0.5885
     30 C20         5.1939   -6.5516   -8.9192 C.3       1 <0>         0.0702
     31 C21         1.6612   -5.1406    1.4624 C.ar      1 <0>        -0.0857
     32 C22         2.5328   -4.1465    1.0447 C.ar      1 <0>        -0.1436
     33 C23         3.7915   -4.0731    1.6105 C.ar      1 <0>         0.1002
     34 N7          4.1663   -4.9343    2.5361 N.ar      1 <0>        -0.4742
     35 C24         3.3640   -5.8924    2.9574 C.ar      1 <0>         0.0999
     36 C25         2.0885   -6.0240    2.4420 C.ar      1 <0>        -0.1499
     37 H3          1.4615    1.6957    0.2666 H         1 <0>         0.0689
     38 H4         -0.1598    1.8549   -0.4504 H         1 <0>         0.0650
     39 H5          0.0205    1.6762    1.3113 H         1 <0>         0.0661
     40 H6          0.1222   -0.0501   -1.9281 H         1 <0>         0.1246
     41 H7         -0.0151   -2.4956   -2.1680 H         1 <0>         0.1180
     42 H8          0.3980   -2.9241    2.0674 H         1 <0>         0.1203
     43 H9          0.5447   -0.4779    2.2947 H         1 <0>         0.1263
     44 H10         0.9972   -6.9854   -0.0081 H         1 <0>         0.3710
     45 H11        -1.6816   -6.2409   -0.7287 H         1 <0>         0.3669
     46 H12         0.2533   -6.7094   -3.9656 H         1 <0>         0.1309
     47 H13         0.0707   -4.9963   -4.4131 H         1 <0>         0.1229
     48 H14         0.8444   -6.4038   -6.5771 H         1 <0>         0.4074
     49 H15         1.6444   -6.8816   -8.7323 H         1 <0>         0.1602
     50 H16         1.6319   -7.4898  -11.1106 H         1 <0>         0.1564
     51 H17         2.1069   -8.0364  -13.4256 H         1 <0>         0.1563
     52 H18         4.3958   -8.0244  -14.2974 H         1 <0>         0.1610
     53 H19         6.2863   -7.4667  -12.8921 H         1 <0>         0.1609
     54 H20         5.3403   -5.5218   -8.5931 H         1 <0>         0.1783
     55 H21         5.5241   -7.2421   -8.1431 H         1 <0>         0.1777
     56 H22         2.2319   -3.4387    0.2865 H         1 <0>         0.1404
     57 H23         4.4764   -3.3016    1.2907 H         1 <0>         0.1557
     58 H24         3.7063   -6.5796    3.7171 H         1 <0>         0.1605
     59 H25         1.4343   -6.8076    2.7946 H         1 <0>         0.1419
     60 H26         6.8948   -6.7292  -10.2652 H         1 <0>         0.4551
@<TRIPOS>BOND
     1    1    2 1
     2    1   37 1
     3    1   38 1
     4    1   39 1
     5    2    7 ar
     6    2    3 ar
     7    3    4 ar
     8    3   40 1
     9    4    5 ar
    10    4   41 1
    11    5    6 ar
    12    5    8 1
    13    6    7 ar
    14    6   42 1
    15    7   43 1
    16    8   13 1
    17    8    9 1
    18    9   10 1
    19    9   11 1
    20    9   31 1
    21   11   12 1
    22   11   44 1
    23   12   13 1
    24   12   45 1
    25   13   14 1
    26   13   15 1
    27   15   16 1
    28   16   17 1
    29   16   46 1
    30   16   47 1
    31   17   18 2
    32   17   19 am
    33   19   20 1
    34   19   48 1
    35   20   21 2
    36   21   22 1
    37   21   49 1
    38   22   30 1
    39   22   23 2
    40   23   28 ar
    41   23   24 ar
    42   24   25 ar
    43   24   50 1
    44   25   26 ar
    45   25   51 1
    46   26   27 ar
    47   26   52 1
    48   27   28 ar
    49   27   53 1
    50   28   29 2
    51   29   30 1
    52   29   60 1
    53   30   54 1
    54   30   55 1
    55   31   36 ar
    56   31   32 ar
    57   32   33 ar
    58   32   56 1
    59   33   34 ar
    60   33   57 1
    61   34   35 ar
    62   35   36 ar
    63   35   58 1
    64   36   59 1
@<TRIPOS>MOLECULE
ZINC39674014
   73    77     0     0     0
SMALL
USER_CHARGES

@<TRIPOS>ATOM
      1 C1         -2.4517    0.5625   -2.1127 C.3       1 <0>        -0.1509
      2 C2         -1.9300   -0.8007   -1.6540 C.3       1 <0>         0.0494
      3 O1         -0.6573   -1.0502   -2.2539 O.3       1 <0>        -0.2945
      4 C3         -0.0522   -2.2253   -1.9487 C.ar      1 <0>         0.1880
      5 C4         -0.6705   -3.1258   -1.0938 C.ar      1 <0>        -0.2169
      6 C5         -0.0533   -4.3211   -0.7836 C.ar      1 <0>        -0.0449
      7 C6          1.1852   -4.6308   -1.3220 C.ar      1 <0>        -0.1637
      8 C7          1.8135   -3.7483   -2.1734 C.ar      1 <0>        -0.0518
      9 C8          1.1976   -2.5376   -2.5002 C.ar      1 <0>        -0.1807
     10 C9          1.8622   -1.5905   -3.4156 C.2       1 <0>         0.5959
     11 O2          1.7292   -0.3929   -3.2529 O.2       1 <0>        -0.5122
     12 N1          2.6167   -2.0527   -4.4323 N.am      1 <0>        -0.6226
     13 C10         2.8094   -3.4605   -4.8533 C.3       1 <0>         0.1070
     14 C11         2.8210   -3.4080   -6.3975 C.3       1 <0>        -0.1143
     15 H1          1.8269   -3.6186   -6.7918 H         1 <0>         0.1109
     16 C12         3.2380   -1.9674   -6.7381 C.3       1 <0>        -0.0713
     17 C13         3.4361   -1.2672   -5.3859 C.3       1 <0>         0.1097
     18 C14         2.1349   -1.2710   -7.5292 C.3       1 <0>        -0.1339
     19 C15         2.5959    0.1401   -7.9051 C.3       1 <0>        -0.0112
     20 N2          3.8234    0.0585   -8.7060 N.4       1 <0>        -0.5042
     21 C16         4.9053   -0.5283   -7.9063 C.3       1 <0>        -0.0080
     22 C17         4.5419   -1.9676   -7.5301 C.3       1 <0>        -0.1461
     23 C18         3.8219   -4.3906   -6.9484 C.2       1 <0>         0.5191
     24 O3          4.8207   -4.6586   -6.3147 O.2       1 <0>        -0.5207
     25 N3          3.6073   -4.9716   -8.1454 N.am      1 <0>        -0.7277
     26 C19         4.5803   -5.9269   -8.6810 C.3       1 <0>         0.1215
     27 C20         4.1006   -6.4345  -10.0423 C.3       1 <0>        -0.0479
     28 C21         5.1015   -7.4171  -10.5932 C.2       1 <0>        -0.1798
     29 C22         5.1072   -8.8666  -10.3812 C.ar      1 <0>        -0.0982
     30 C23         4.2843   -9.7475   -9.6772 C.ar      1 <0>        -0.0759
     31 C24         4.5666  -11.0846   -9.6752 C.ar      1 <0>        -0.1397
     32 C25         5.6655  -11.5742  -10.3672 C.ar      1 <0>        -0.0956
     33 C26         6.4908  -10.7225  -11.0686 C.ar      1 <0>        -0.1276
     34 C27         6.2222   -9.3580  -11.0848 C.ar      1 <0>         0.0970
     35 N4          6.8384   -8.2773  -11.6751 N.pl3     1 <0>        -0.5910
     36 C28         6.1537   -7.1309  -11.3761 C.2       1 <0>         0.0910
     37 H2          7.6366   -8.3225  -12.2244 H         1 <0>         0.4166
     38 C29         6.5279   -5.7509  -11.8520 C.3       1 <0>        -0.0954
     39 H3         -1.7496    1.3401   -1.8120 H         1 <0>         0.0687
     40 H4         -2.5546    0.5657   -3.1979 H         1 <0>         0.0642
     41 H5         -3.4225    0.7527   -1.6551 H         1 <0>         0.0821
     42 H6         -1.8271   -0.8040   -0.5689 H         1 <0>         0.0671
     43 H7         -2.6321   -1.5784   -1.9547 H         1 <0>         0.0650
     44 H8         -1.6358   -2.8913   -0.6699 H         1 <0>         0.1378
     45 H9         -0.5386   -5.0188   -0.1172 H         1 <0>         0.1345
     46 H10         1.6604   -5.5681   -1.0729 H         1 <0>         0.1342
     47 H11         2.7790   -3.9937   -2.5904 H         1 <0>         0.1350
     48 H12         3.7592   -3.8424   -4.4789 H         1 <0>         0.0997
     49 H13         1.9843   -4.0791   -4.5002 H         1 <0>         0.0967
     50 H14         3.0803   -0.2382   -5.4356 H         1 <0>         0.0893
     51 H15         4.4867   -1.2939   -5.0966 H         1 <0>         0.0837
     52 H16         1.9235   -1.8383   -8.4356 H         1 <0>         0.0958
     53 H17         1.2335   -1.2089   -6.9195 H         1 <0>         0.1184
     54 H18         1.8163    0.6344   -8.4847 H         1 <0>         0.1394
     55 H19         2.7916    0.7119   -6.9980 H         1 <0>         0.1346
     56 H20         3.6563   -0.5175   -9.5174 H         1 <0>         0.4270
     57 H21         5.8279   -0.5267   -8.4867 H         1 <0>         0.1387
     58 H22         5.0463    0.0595   -6.9992 H         1 <0>         0.1334
     59 H23         5.3376   -2.3965   -6.9210 H         1 <0>         0.1270
     60 H24         4.4170   -2.5601   -8.4364 H         1 <0>         0.0965
     61 H25         2.8085   -4.7573   -8.6523 H         1 <0>         0.4001
     62 H26         5.5464   -5.4354   -8.7964 H         1 <0>         0.0701
     63 H27         4.6800   -6.7675   -7.9944 H         1 <0>         0.0748
     64 H28         3.1345   -6.9260   -9.9270 H         1 <0>         0.0775
     65 H29         4.0009   -5.5939  -10.7290 H         1 <0>         0.0721
     66 H30         3.4279   -9.3735   -9.1358 H         1 <0>         0.1192
     67 H31         3.9296  -11.7657   -9.1304 H         1 <0>         0.1244
     68 H32         5.8759  -12.6335  -10.3556 H         1 <0>         0.1282
     69 H33         7.3437  -11.1132  -11.6038 H         1 <0>         0.1218
     70 H34         7.2039   -5.2892  -11.1323 H         1 <0>         0.0770
     71 H35         7.0223   -5.8222  -12.8208 H         1 <0>         0.0713
     72 H36         5.6282   -5.1430  -11.9471 H         1 <0>         0.0815
     73 H37         4.0913    0.9846   -9.0037 H         1 <0>         0.4338
@<TRIPOS>BOND
     1    1    2 1
     2    1   39 1
     3    1   40 1
     4    1   41 1
     5    2    3 1
     6    2   42 1
     7    2   43 1
     8    3    4 1
     9    4    9 ar
    10    4    5 ar
    11    5    6 ar
    12    5   44 1
    13    6    7 ar
    14    6   45 1
    15    7    8 ar
    16    7   46 1
    17    8    9 ar
    18    8   47 1
    19    9   10 1
    20   10   11 2
    21   10   12 am
    22   12   17 1
    23   12   13 1
    24   13   14 1
    25   13   48 1
    26   13   49 1
    27   14   15 1
    28   14   16 1
    29   14   23 1
    30   16   22 1
    31   16   17 1
    32   16   18 1
    33   17   50 1
    34   17   51 1
    35   18   19 1
    36   18   52 1
    37   18   53 1
    38   19   20 1
    39   19   54 1
    40   19   55 1
    41   20   21 1
    42   20   56 1
    43   20   73 1
    44   21   22 1
    45   21   57 1
    46   21   58 1
    47   22   59 1
    48   22   60 1
    49   23   24 2
    50   23   25 am
    51   25   26 1
    52   25   61 1
    53   26   27 1
    54   26   62 1
    55   26   63 1
    56   27   64 1
    57   27   65 1
    58   27   28 1
    59   28   29 1
    60   28   36 2
    61   29   30 ar
    62   29   34 ar
    63   30   31 ar
    64   30   66 1
    65   31   32 ar
    66   31   67 1
    67   32   33 ar
    68   32   68 1
    69   33   34 ar
    70   33   69 1
    71   34   35 1
    72   35   37 1
    73   35   36 1
    74   36   38 1
    75   38   70 1
    76   38   71 1
    77   38   72 1
@<TRIPOS>MOLECULE
ZINC39684140
   73    77     0     0     0
SMALL
USER_CHARGES

@<TRIPOS>ATOM
      1 C1         -2.2934    1.1288   -2.4931 C.3       1 <0>        -0.1506
      2 C2         -1.7371   -0.1513   -1.8663 C.3       1 <0>         0.0498
      3 O1         -0.4913   -0.4814   -2.4834 O.3       1 <0>        -0.2927
      4 C3          0.1392   -1.5975   -2.0396 C.ar      1 <0>         0.1908
      5 C4         -0.4294   -2.3657   -1.0344 C.ar      1 <0>        -0.2165
      6 C5          0.2136   -3.5011   -0.5834 C.ar      1 <0>        -0.0472
      7 C6          1.4287   -3.8820   -1.1292 C.ar      1 <0>        -0.1656
      8 C7          2.0077   -3.1310   -2.1289 C.ar      1 <0>        -0.0528
      9 C8          1.3651   -1.9829   -2.5987 C.ar      1 <0>        -0.1725
     10 C9          1.9767   -1.1771   -3.6727 C.2       1 <0>         0.6013
     11 O2          1.8373    0.0307   -3.6810 O.2       1 <0>        -0.5152
     12 N1          2.6899   -1.7800   -4.6445 N.am      1 <0>        -0.6170
     13 C10         2.8797   -3.2333   -4.8634 C.3       1 <0>         0.1108
     14 C11         2.8210   -3.4080   -6.3975 C.3       1 <0>        -0.1153
     15 H1          3.5358   -4.1646   -6.7210 H         1 <0>         0.1165
     16 C12         3.2055   -2.0310   -6.9642 C.3       1 <0>        -0.0724
     17 C13         3.4563   -1.1390   -5.7398 C.3       1 <0>         0.1085
     18 C14         2.0599   -1.4636   -7.7968 C.3       1 <0>        -0.1459
     19 C15         2.4872   -0.1208   -8.3962 C.3       1 <0>        -0.0094
     20 N2          3.6781   -0.3131   -9.2325 N.4       1 <0>        -0.5043
     21 C16         4.8017   -0.7709   -8.4064 C.3       1 <0>        -0.0100
     22 C17         4.4723   -2.1411   -7.8072 C.3       1 <0>        -0.1333
     23 C18         1.4275   -3.7853   -6.8297 C.2       1 <0>         0.5128
     24 O3          0.4701   -3.4041   -6.1902 O.2       1 <0>        -0.5121
     25 N3          1.2451   -4.5464   -7.9269 N.am      1 <0>        -0.7309
     26 C19        -0.1096   -4.9133   -8.3471 C.3       1 <0>         0.1220
     27 C20        -0.0364   -5.7731   -9.6105 C.3       1 <0>        -0.0470
     28 C21        -1.4299   -6.1505  -10.0427 C.2       1 <0>        -0.1845
     29 C22        -2.3312   -5.3494  -10.8746 C.ar      1 <0>        -0.0960
     30 C23        -2.2304   -4.1003  -11.4896 C.ar      1 <0>        -0.0832
     31 C24        -3.2792   -3.6175  -12.2207 C.ar      1 <0>        -0.1367
     32 C25        -4.4445   -4.3590  -12.3564 C.ar      1 <0>        -0.1027
     33 C26        -4.5653   -5.5942  -11.7578 C.ar      1 <0>        -0.0885
     34 C27        -3.5102   -6.1053  -11.0095 C.ar      1 <0>         0.0972
     35 N4         -3.3252   -7.2752  -10.3073 N.pl3     1 <0>        -0.5905
     36 C28        -2.0786   -7.2869   -9.7432 C.2       1 <0>         0.0692
     37 C29        -5.8366   -6.3885  -11.9130 C.3       1 <0>        -0.1165
     38 H2         -1.5860    1.9442   -2.3425 H         1 <0>         0.0683
     39 H3         -2.4468    0.9735   -3.5610 H         1 <0>         0.0646
     40 H4         -3.2437    1.3806   -2.0224 H         1 <0>         0.0815
     41 H5         -1.5838    0.0040   -0.7984 H         1 <0>         0.0663
     42 H6         -2.4446   -0.9667   -2.0169 H         1 <0>         0.0643
     43 H7         -1.3762   -2.0751   -0.6036 H         1 <0>         0.1368
     44 H8         -0.2330   -4.0957    0.1998 H         1 <0>         0.1332
     45 H9          1.9245   -4.7714   -0.7694 H         1 <0>         0.1325
     46 H10         2.9552   -3.4315   -2.5512 H         1 <0>         0.1320
     47 H11         3.8497   -3.5516   -4.4815 H         1 <0>         0.0888
     48 H12         2.0785   -3.7974   -4.3858 H         1 <0>         0.1015
     49 H13         3.0867   -0.1301   -5.9230 H         1 <0>         0.0880
     50 H14         4.5191   -1.1178   -5.4987 H         1 <0>         0.0836
     51 H15         1.8144   -2.1588   -8.5997 H         1 <0>         0.0947
     52 H16         1.1863   -1.3171   -7.1617 H         1 <0>         0.1240
     53 H17         1.6766    0.2794   -9.0052 H         1 <0>         0.1380
     54 H18         2.7169    0.5789   -7.5926 H         1 <0>         0.1347
     55 H19         3.4813   -1.0027   -9.9423 H         1 <0>         0.4272
     56 H20         5.6971   -0.8501   -9.0230 H         1 <0>         0.1396
     57 H21         4.9766   -0.0557   -7.6027 H         1 <0>         0.1328
     58 H22         5.2995   -2.4721   -7.1794 H         1 <0>         0.1217
     59 H23         4.3135   -2.8608   -8.6103 H         1 <0>         0.0974
     60 H24         2.0108   -4.8514   -8.4384 H         1 <0>         0.3986
     61 H25        -0.5965   -5.4772   -7.5515 H         1 <0>         0.0713
     62 H26        -0.6826   -4.0097   -8.5552 H         1 <0>         0.0702
     63 H27         0.4506   -5.2092  -10.4061 H         1 <0>         0.0729
     64 H28         0.5366   -6.6767   -9.4024 H         1 <0>         0.0767
     65 H29        -1.3270   -3.5174  -11.3877 H         1 <0>         0.1140
     66 H30        -3.2008   -2.6511  -12.6963 H         1 <0>         0.1219
     67 H31        -5.2651   -3.9638  -12.9368 H         1 <0>         0.1270
     68 H32        -1.6770   -8.0903   -9.1434 H         1 <0>         0.1707
     69 H33        -3.9795   -7.9868  -10.2277 H         1 <0>         0.4186
     70 H34        -5.7614   -7.0261  -12.7939 H         1 <0>         0.0720
     71 H35        -5.9887   -7.0072  -11.0286 H         1 <0>         0.0585
     72 H36        -6.6791   -5.7068  -12.0288 H         1 <0>         0.0736
     73 H37         3.9216    0.5606   -9.6747 H         1 <0>         0.4337
@<TRIPOS>BOND
     1    1    2 1
     2    1   38 1
     3    1   39 1
     4    1   40 1
     5    2    3 1
     6    2   41 1
     7    2   42 1
     8    3    4 1
     9    4    9 ar
    10    4    5 ar
    11    5    6 ar
    12    5   43 1
    13    6    7 ar
    14    6   44 1
    15    7    8 ar
    16    7   45 1
    17    8    9 ar
    18    8   46 1
    19    9   10 1
    20   10   11 2
    21   10   12 am
    22   12   17 1
    23   12   13 1
    24   13   14 1
    25   13   47 1
    26   13   48 1
    27   14   15 1
    28   14   16 1
    29   14   23 1
    30   16   22 1
    31   16   17 1
    32   16   18 1
    33   17   49 1
    34   17   50 1
    35   18   19 1
    36   18   51 1
    37   18   52 1
    38   19   20 1
    39   19   53 1
    40   19   54 1
    41   20   21 1
    42   20   55 1
    43   20   73 1
    44   21   22 1
    45   21   56 1
    46   21   57 1
    47   22   58 1
    48   22   59 1
    49   23   24 2
    50   23   25 am
    51   25   26 1
    52   25   60 1
    53   26   27 1
    54   26   61 1
    55   26   62 1
    56   27   63 1
    57   27   64 1
    58   27   28 1
    59   28   29 1
    60   28   36 2
    61   29   30 ar
    62   29   34 ar
    63   30   31 ar
    64   30   65 1
    65   31   32 ar
    66   31   66 1
    67   32   33 ar
    68   32   67 1
    69   33   34 ar
    70   33   37 1
    71   34   35 1
    72   35   69 1
    73   35   36 1
    74   36   68 1
    75   37   70 1
    76   37   71 1
    77   37   72 1
@<TRIPOS>MOLECULE
ZINC58175757
   65    68     0     0     0
SMALL
USER_CHARGES

@<TRIPOS>ATOM
      1 C1         -0.6349   -0.1327    1.1334 C.3       1 <0>        -0.1580
      2 C2          0.0845   -1.3358    0.5205 C.3       1 <0>        -0.0808
      3 H1         -0.6515   -2.0562    0.1636 H         1 <0>         0.0897
      4 C3          0.9512   -0.8694   -0.6509 C.3       1 <0>        -0.1273
      5 C4          1.9845    0.1417   -0.1499 C.3       1 <0>        -0.1176
      6 C5          2.8704   -0.5167    0.9095 C.3       1 <0>        -0.1497
      7 C6          2.0037   -0.9832    2.0809 C.3       1 <0>         0.0235
      8 H2          1.4912   -0.1260    2.5176 H         1 <0>         0.1357
      9 C7          0.9705   -1.9943    1.5799 C.3       1 <0>        -0.1135
     10 H3          0.3530   -2.3266    2.4145 H         1 <0>         0.1175
     11 C8          1.6899   -3.1975    0.9670 C.3       1 <0>        -0.1579
     12 N1          2.8543   -1.6154    3.0981 N.4       1 <0>        -0.3791
     13 C9          4.2185   -1.0800    2.9972 C.3       1 <0>         0.0455
     14 C10         4.9203   -1.7112    1.8224 C.ar      1 <0>        -0.1328
     15 C11         4.8974   -3.0841    1.6616 C.ar      1 <0>        -0.1082
     16 C12         5.5392   -3.6677    0.5853 C.ar      1 <0>        -0.0896
     17 C13         6.2079   -2.8771   -0.3352 C.ar      1 <0>         0.0660
     18 C14         6.2311   -1.4941   -0.1731 C.ar      1 <0>         0.0482
     19 C15         5.5807   -0.9157    0.9048 C.ar      1 <0>        -0.0771
     20 O1          6.9457   -0.9466   -1.1992 O.3       1 <0>        -0.2992
     21 C16         7.7027   -2.0336   -1.7635 C.3       1 <0>         0.2111
     22 O2          6.9080   -3.1961   -1.4628 O.3       1 <0>        -0.2980
     23 C17         2.3140   -1.3306    4.4341 C.3       1 <0>        -0.0330
     24 C18         1.1273   -2.2215    4.6965 C.2       1 <0>         0.4982
     25 O3          0.8859   -3.1458    3.9492 O.2       1 <0>        -0.4880
     26 N2          0.3341   -1.9912    5.7615 N.am      1 <0>        -0.6492
     27 C19        -0.7083   -2.8751    6.0617 C.ar      1 <0>         0.1858
     28 C20        -0.5790   -4.2273    5.7727 C.ar      1 <0>        -0.1407
     29 C21        -1.6097   -5.0971    6.0702 C.ar      1 <0>         0.0047
     30 C22        -2.7695   -4.6229    6.6552 C.ar      1 <0>        -0.6800
     31 C23        -2.9015   -3.2770    6.9438 C.ar      1 <0>         0.0067
     32 C24        -1.8720   -2.4030    6.6544 C.ar      1 <0>        -0.1558
     33 S1         -4.0821   -5.7360    7.0332 S.o2      1 <0>         2.7001
     34 O4         -5.2724   -4.9609    7.0753 O.2       1 <0>        -0.9567
     35 O5         -3.9301   -6.8522    6.1671 O.2       1 <0>        -0.9573
     36 N3         -3.8248   -6.2921    8.5716 N.pl3     1 <0>        -1.2484
     37 H4          0.1012    0.5877    1.4903 H         1 <0>         0.0545
     38 H5         -1.2661    0.3365    0.3787 H         1 <0>         0.0688
     39 H6         -1.2524   -0.4650    1.9679 H         1 <0>         0.0569
     40 H7          1.4638   -1.7266   -1.0875 H         1 <0>         0.0722
     41 H8          0.3201   -0.4003   -1.4056 H         1 <0>         0.0771
     42 H9          2.6019    0.4740   -0.9844 H         1 <0>         0.0818
     43 H10         1.4719    0.9989    0.2867 H         1 <0>         0.0745
     44 H11         3.3829   -1.3739    0.4729 H         1 <0>         0.1011
     45 H12         3.6065    0.2036    1.2664 H         1 <0>         0.0884
     46 H13         2.2198   -2.8844    0.0674 H         1 <0>         0.0730
     47 H14         2.4025   -3.6001    1.6869 H         1 <0>         0.0452
     48 H15         0.9600   -3.9651    0.7101 H         1 <0>         0.0816
     49 H16         4.1755    0.0001    2.8573 H         1 <0>         0.1464
     50 H17         4.7662   -1.3063    3.9121 H         1 <0>         0.1455
     51 H18         4.3772   -3.7020    2.3785 H         1 <0>         0.1355
     52 H19         5.5197   -4.7405    0.4621 H         1 <0>         0.1497
     53 H20         5.5932    0.1569    1.0305 H         1 <0>         0.1485
     54 H21         7.8065   -1.9091   -2.8414 H         1 <0>         0.1442
     55 H22         8.6814   -2.1056   -1.2893 H         1 <0>         0.0971
     56 H23         3.0822   -1.5183    5.1843 H         1 <0>         0.1696
     57 H24         2.0034   -0.2871    4.4855 H         1 <0>         0.1632
     58 H25         0.4858   -1.2127    6.3199 H         1 <0>         0.4243
     59 H26         0.3264   -4.5982    5.3155 H         1 <0>         0.1469
     60 H27        -1.5099   -6.1487    5.8454 H         1 <0>         0.1523
     61 H28        -3.8087   -2.9097    7.4004 H         1 <0>         0.1545
     62 H29        -1.9737   -1.3527    6.8848 H         1 <0>         0.1428
     63 H30        -3.0539   -5.9868    9.0751 H         1 <0>         0.4164
     64 H31        -4.4449   -6.9231    8.9693 H         1 <0>         0.4250
     65 H32         2.8726   -2.6131    2.9484 H         1 <0>         0.4278
@<TRIPOS>BOND
     1    1    2 1
     2    1   37 1
     3    1   38 1
     4    1   39 1
     5    2    3 1
     6    2    9 1
     7    2    4 1
     8    4    5 1
     9    4   40 1
    10    4   41 1
    11    5    6 1
    12    5   42 1
    13    5   43 1
    14    6    7 1
    15    6   44 1
    16    6   45 1
    17    7    8 1
    18    7    9 1
    19    7   12 1
    20    9   10 1
    21    9   11 1
    22   11   46 1
    23   11   47 1
    24   11   48 1
    25   12   13 1
    26   12   23 1
    27   12   65 1
    28   13   14 1
    29   13   49 1
    30   13   50 1
    31   14   19 ar
    32   14   15 ar
    33   15   16 ar
    34   15   51 1
    35   16   17 ar
    36   16   52 1
    37   17   22 1
    38   17   18 ar
    39   18   19 ar
    40   18   20 1
    41   19   53 1
    42   20   21 1
    43   21   22 1
    44   21   54 1
    45   21   55 1
    46   23   24 1
    47   23   56 1
    48   23   57 1
    49   24   25 2
    50   24   26 am
    51   26   27 1
    52   26   58 1
    53   27   32 ar
    54   27   28 ar
    55   28   29 ar
    56   28   59 1
    57   29   30 ar
    58   29   60 1
    59   30   31 ar
    60   30   33 1
    61   31   32 ar
    62   31   61 1
    63   32   62 1
    64   33   34 2
    65   33   35 2
    66   33   36 1
    67   36   63 1
    68   36   64 1
@<TRIPOS>MOLECULE
ZINC09542874
   55    58     0     0     0
SMALL
USER_CHARGES
methyl 4-[4-(5-bromo-2-hydroxy-phenyl)-6-(p-tolyl)-2,3,4,5-tetrahydropyrimidin-2-yl]benzoate
@<TRIPOS>ATOM
      1 C1          2.4893    1.0414   -0.0161 C.3       1 <0>        -0.1300
      2 C2          1.1771    1.7823    0.0004 C.ar      1 <0>        -0.0385
      3 C3         -0.0126    1.0758    0.0080 C.ar      1 <0>        -0.1267
      4 C4         -1.2174    1.7477    0.0173 C.ar      1 <0>        -0.0753
      5 C5         -1.2343    3.1438    0.0307 C.ar      1 <0>        -0.1104
      6 C6         -0.0301    3.8504    0.0226 C.ar      1 <0>        -0.0507
      7 C7          1.1675    3.1659    0.0075 C.ar      1 <0>        -0.1304
      8 C8         -2.5197    3.8696    0.0469 C.2       1 <0>         0.2774
      9 N1         -2.4973    5.1489    0.0584 N.2       1 <0>        -0.5254
     10 C9         -3.6889    5.9879    0.0794 C.3       1 <0>         0.2578
     11 H1         -3.8352    6.3724    1.0888 H         1 <0>         0.1651
     12 C10        -4.9610    3.9748    0.4617 C.3       1 <0>         0.0972
     13 H2         -4.8961    4.2037    1.5254 H         1 <0>         0.1558
     14 C11        -3.7932    3.0705    0.0553 C.3       1 <0>        -0.1399
     15 C12        -6.2667    3.2812    0.1697 C.ar      1 <0>        -0.1639
     16 C13        -6.9303    3.5279   -1.0167 C.ar      1 <0>        -0.0864
     17 C14        -8.1261    2.8876   -1.2875 C.ar      1 <0>        -0.0891
     18 C15        -8.6660    2.0076   -0.3662 C.ar      1 <0>        -0.0463
     19 C16        -8.0084    1.7621    0.8233 C.ar      1 <0>        -0.1201
     20 C17        -6.8059    2.3991    1.0944 C.ar      1 <0>         0.1613
     21 O1         -6.1574    2.1592    2.2645 O.3       1 <0>        -0.4885
     22 Br1        -9.0284    3.2212   -2.9156 Br        1 <0>        -0.0118
     23 C18        -3.5023    7.1435   -0.8697 C.ar      1 <0>        -0.1056
     24 C19        -4.6026    7.7139   -1.4849 C.ar      1 <0>        -0.1399
     25 C20        -4.4396    8.7756   -2.3504 C.ar      1 <0>        -0.0498
     26 C21        -3.1594    9.2668   -2.6143 C.ar      1 <0>        -0.0918
     27 C22        -2.0530    8.6828   -1.9944 C.ar      1 <0>        -0.0465
     28 C23        -2.2310    7.6256   -1.1264 C.ar      1 <0>        -0.0688
     29 C24        -2.9765   10.3990   -3.5454 C.2       1 <0>         0.4990
     30 O2         -1.8616   10.8239   -3.7733 O.2       1 <0>        -0.4873
     31 O3         -4.0461   10.9602   -4.1418 O.3       1 <0>        -0.3542
     32 C25        -3.7914   12.0686   -5.0446 C.3       1 <0>         0.0354
     33 H3          2.7958    0.8683   -1.0477 H         1 <0>         0.0816
     34 H4          3.2481    1.6350    0.4937 H         1 <0>         0.0749
     35 H5          2.3730    0.0850    0.4937 H         1 <0>         0.0749
     36 H6          0.0021   -0.0041    0.0020 H         1 <0>         0.1345
     37 H7         -2.1452    1.1950    0.0187 H         1 <0>         0.1297
     38 H8         -0.0361    4.9304    0.0277 H         1 <0>         0.1374
     39 H9          2.0997    3.7111    0.0008 H         1 <0>         0.1338
     40 H10        -3.9606    2.7005   -0.8585 H         1 <0>         0.1109
     41 H11        -3.7032    2.2509    0.7682 H         1 <0>         0.1488
     42 H12        -6.5129    4.2178   -1.7352 H         1 <0>         0.1299
     43 H13        -9.6020    1.5120   -0.5776 H         1 <0>         0.1532
     44 H14        -8.4297    1.0747    1.5418 H         1 <0>         0.1562
     45 H15        -6.4085    2.7560    2.9828 H         1 <0>         0.4055
     46 H16        -5.5917    7.3297   -1.2839 H         1 <0>         0.1259
     47 H17        -5.2996    9.2228   -2.8266 H         1 <0>         0.1530
     48 H18        -1.0601    9.0577   -2.1944 H         1 <0>         0.1531
     49 H19        -1.3760    7.1729   -0.6462 H         1 <0>         0.1552
     50 H20        -3.1450   11.7348   -5.8563 H         1 <0>         0.0690
     51 H21        -4.7353   12.4267   -5.4556 H         1 <0>         0.1097
     52 H22        -3.3027   12.8762   -4.4996 H         1 <0>         0.0693
     53 N2         -4.8765    5.2205   -0.3252 N.4       1 <0>        -0.5488
     54 H23        -4.8086    4.9890   -1.3232 H         1 <0>         0.4325
     55 H24        -5.7186    5.7847   -0.1612 H         1 <0>         0.4379
@<TRIPOS>BOND
     1    1    2 1
     2    1   33 1
     3    1   34 1
     4    1   35 1
     5    2    7 ar
     6    2    3 ar
     7    3    4 ar
     8    3   36 1
     9    4    5 ar
    10    4   37 1
    11    5    6 ar
    12    5    8 1
    13    6    7 ar
    14    6   38 1
    15    7   39 1
    16    8   14 1
    17    8    9 2
    18    9   10 1
    19   10   11 1
    20   10   23 1
    21   10   53 1
    22   12   13 1
    23   12   14 1
    24   12   15 1
    25   12   53 1
    26   14   40 1
    27   14   41 1
    28   15   20 ar
    29   15   16 ar
    30   16   17 ar
    31   16   42 1
    32   17   18 ar
    33   17   22 1
    34   18   19 ar
    35   18   43 1
    36   19   20 ar
    37   19   44 1
    38   20   21 1
    39   21   45 1
    40   23   28 ar
    41   23   24 ar
    42   24   25 ar
    43   24   46 1
    44   25   26 ar
    45   25   47 1
    46   26   27 ar
    47   26   29 1
    48   27   28 ar
    49   27   48 1
    50   28   49 1
    51   29   30 2
    52   29   31 1
    53   31   32 1
    54   32   50 1
    55   32   51 1
    56   32   52 1
    57   53   54 1
    58   53   55 1
@<TRIPOS>MOLECULE
ZINC29720682
   68    72     0     0     0
SMALL
USER_CHARGES
N-[1-[2-[(3-cyano-1-phenyl-4,5,6,7-tetrahydroindol-2-yl)amino]-2-oxo-ethyl]-4-piperidyl]-4-fluoro-benzamide
@<TRIPOS>ATOM
      1 C1         -5.9406    0.6537   -4.2749 C.ar      1 <0>        -0.1127
      2 C2         -4.8092   -0.1087   -4.5001 C.ar      1 <0>        -0.1123
      3 C3         -3.5977    0.2741   -3.9584 C.ar      1 <0>        -0.1291
      4 C4         -3.5166    1.4256   -3.1871 C.ar      1 <0>         0.1351
      5 C5         -4.6554    2.1862   -2.9584 C.ar      1 <0>        -0.0760
      6 C6         -5.8629    1.8013   -3.5075 C.ar      1 <0>        -0.1027
      7 N1         -2.2888    1.8164   -2.6356 N.pl3     1 <0>        -0.3819
      8 C7         -2.0220    1.8993   -1.2963 C.2       1 <0>         0.0477
      9 C8         -0.7493    2.3064   -1.1268 C.2       1 <0>        -0.0913
     10 C9         -0.1752    2.4905   -2.4578 C.2       1 <0>        -0.1057
     11 C10        -1.1870    2.1686   -3.3550 C.2       1 <0>         0.3006
     12 N2         -1.0915    2.2004   -4.7383 N.am      1 <0>        -0.6373
     13 C11        -2.1387    2.6185   -5.4766 C.2       1 <0>         0.4951
     14 O1         -3.1582    2.9839   -4.9307 O.2       1 <0>        -0.4954
     15 C12        -2.0427    2.6321   -6.9805 C.3       1 <0>        -0.0253
     16 N3         -3.3050    3.1255   -7.5472 N.4       1 <0>        -0.3874
     17 C13        -4.4059    2.1939   -7.2705 C.3       1 <0>        -0.0136
     18 C14        -5.7256    2.8060   -7.7456 C.3       1 <0>        -0.1521
     19 C15        -5.6388    3.0912   -9.2475 C.3       1 <0>         0.1372
     20 C16        -4.4550    4.0250   -9.5142 C.3       1 <0>        -0.1542
     21 C17        -3.1721    3.3776   -8.9878 C.3       1 <0>         0.0018
     22 N4         -6.8778    3.7308   -9.6968 N.am      1 <0>        -0.7410
     23 C18        -7.9402    2.9756  -10.0396 C.2       1 <0>         0.5723
     24 O2         -7.8703    1.7636   -9.9760 O.2       1 <0>        -0.5295
     25 C19        -9.1896    3.6206  -10.4926 C.ar      1 <0>        -0.1595
     26 C20        -9.2745    5.0128  -10.5611 C.ar      1 <0>        -0.0551
     27 C21       -10.4405    5.6093  -10.9909 C.ar      1 <0>        -0.1614
     28 C22       -11.5321    4.8300  -11.3425 C.ar      1 <0>         0.1371
     29 C23       -11.4552    3.4475  -11.2704 C.ar      1 <0>        -0.1592
     30 C24       -10.2919    2.8405  -10.8484 C.ar      1 <0>        -0.0261
     31 F1        -12.6746    5.4199  -11.7572 F         1 <0>        -0.1268
     32 C25         1.1554    2.9157   -2.7731 C.1       1 <0>         0.2777
     33 N5          2.2109    3.2531   -3.0232 N.1       1 <0>        -0.4143
     34 C26        -0.0859    2.5182    0.2085 C.3       1 <0>        -0.0580
     35 C27        -1.1765    2.5969    1.2845 C.3       1 <0>        -0.1216
     36 C28        -2.1350    1.4128    1.1223 C.3       1 <0>        -0.1168
     37 C29        -2.9634    1.5939   -0.1549 C.3       1 <0>        -0.0504
     38 H1         -6.8868    0.3523   -4.6995 H         1 <0>         0.1306
     39 H2         -4.8728   -1.0042   -5.1005 H         1 <0>         0.1316
     40 H3         -2.7143   -0.3216   -4.1349 H         1 <0>         0.1238
     41 H4         -4.5962    3.0802   -2.3554 H         1 <0>         0.1280
     42 H5         -6.7482    2.3950   -3.3337 H         1 <0>         0.1325
     43 H6         -0.1611    1.8844   -5.2328 H         1 <0>         0.4611
     44 H7         -1.2191    3.2926   -7.2894 H         1 <0>         0.1673
     45 H8         -1.8510    1.6121   -7.3449 H         1 <0>         0.1616
     46 H9         -4.2283    1.2479   -7.8030 H         1 <0>         0.1263
     47 H10        -4.4601    2.0012   -6.1889 H         1 <0>         0.1484
     48 H11        -6.5476    2.1013   -7.5513 H         1 <0>         0.1169
     49 H12        -5.9111    3.7444   -7.2025 H         1 <0>         0.0926
     50 H13        -5.5357    2.1563   -9.8179 H         1 <0>         0.1064
     51 H14        -4.3623    4.1997  -10.5963 H         1 <0>         0.1233
     52 H15        -4.6213    4.9836   -9.0010 H         1 <0>         0.0974
     53 H16        -2.3219    4.0527   -9.1650 H         1 <0>         0.1400
     54 H17        -3.0002    2.4261   -9.5123 H         1 <0>         0.1338
     55 H18        -6.9411    4.8275   -9.7544 H         1 <0>         0.4253
     56 H19        -8.4265    5.6209  -10.2829 H         1 <0>         0.1339
     57 H20       -10.5055    6.6858  -11.0495 H         1 <0>         0.1462
     58 H21       -12.3083    2.8451  -11.5458 H         1 <0>         0.1483
     59 H22       -10.2328    1.7635  -10.7933 H         1 <0>         0.1478
     60 H23         0.5906    1.6768    0.4194 H         1 <0>         0.0825
     61 H24         0.4899    3.4552    0.1873 H         1 <0>         0.0791
     62 H25        -0.7118    2.5604    2.2809 H         1 <0>         0.0771
     63 H26        -1.7334    3.5390    1.1739 H         1 <0>         0.0689
     64 H27        -1.5566    0.4796    1.0539 H         1 <0>         0.0724
     65 H28        -2.8080    1.3642    1.9910 H         1 <0>         0.0792
     66 H29        -3.6701    2.4275   -0.0294 H         1 <0>         0.0827
     67 H30        -3.5202    0.6713   -0.3757 H         1 <0>         0.0780
     68 H31        -3.5450    4.0821   -7.0601 H         1 <0>         0.4490
@<TRIPOS>BOND
     1    1    6 ar
     2    1    2 ar
     3    1   38 1
     4    2    3 ar
     5    2   39 1
     6    3    4 ar
     7    3   40 1
     8    4    5 ar
     9    4    7 1
    10    5    6 ar
    11    5   41 1
    12    6   42 1
    13    7   11 1
    14    7    8 1
    15    8   37 1
    16    8    9 2
    17    9   10 1
    18    9   34 1
    19   10   11 2
    20   10   32 1
    21   11   12 1
    22   12   13 am
    23   12   43 1
    24   13   14 2
    25   13   15 1
    26   15   16 1
    27   15   44 1
    28   15   45 1
    29   16   21 1
    30   16   17 1
    31   16   68 1
    32   17   18 1
    33   17   46 1
    34   17   47 1
    35   18   19 1
    36   18   48 1
    37   18   49 1
    38   19   20 1
    39   19   22 1
    40   19   50 1
    41   20   21 1
    42   20   51 1
    43   20   52 1
    44   21   53 1
    45   21   54 1
    46   22   23 am
    47   22   55 1
    48   23   24 2
    49   23   25 1
    50   25   30 ar
    51   25   26 ar
    52   26   27 ar
    53   26   56 1
    54   27   28 ar
    55   27   57 1
    56   28   29 ar
    57   28   31 1
    58   29   30 ar
    59   29   58 1
    60   30   59 1
    61   32   33 3
    62   34   35 1
    63   34   60 1
    64   34   61 1
    65   35   36 1
    66   35   62 1
    67   35   63 1
    68   36   37 1
    69   36   64 1
    70   36   65 1
    71   37   66 1
    72   37   67 1
@<TRIPOS>MOLECULE
ZINC39654153
   65    68     0     0     0
SMALL
USER_CHARGES

@<TRIPOS>ATOM
      1 C1         -0.8363    2.6775   -0.9050 C.3       1 <0>        -0.1479
      2 C2         -1.8500    2.5211   -2.0403 C.3       1 <0>        -0.0909
      3 C3         -1.1456    2.0296   -3.2785 C.ar      1 <0>        -0.0731
      4 C4         -0.6168    2.9357   -4.1787 C.ar      1 <0>        -0.1163
      5 C5          0.0293    2.4848   -5.3145 C.ar      1 <0>        -0.1106
      6 C6          0.1471    1.1278   -5.5499 C.ar      1 <0>        -0.0991
      7 C7         -0.3808    0.2216   -4.6493 C.ar      1 <0>        -0.1079
      8 C8         -1.0232    0.6725   -3.5113 C.ar      1 <0>        -0.1137
      9 C9          0.8507    0.6362   -6.7886 C.3       1 <0>        -0.0857
     10 C10         2.3403    0.4541   -6.4908 C.3       1 <0>         0.1205
     11 N1          3.0243   -0.0237   -7.6950 N.am      1 <0>        -0.7301
     12 C11         4.3516   -0.2563   -7.6687 C.2       1 <0>         0.5192
     13 O1          4.9797   -0.0699   -6.6481 O.2       1 <0>        -0.5158
     14 C12         5.0551   -0.7478   -8.9074 C.3       1 <0>        -0.1138
     15 H1          4.4193   -1.4454   -9.4525 H         1 <0>         0.1145
     16 C13         6.3951   -1.4205   -8.5339 C.3       1 <0>         0.1166
     17 N2          7.3257   -1.0289   -9.6187 N.am      1 <0>        -0.6189
     18 C14         6.9827    0.3845   -9.9064 C.3       1 <0>         0.0969
     19 C15         5.4451    0.4367   -9.8074 C.3       1 <0>        -0.0730
     20 C16         5.0023    1.7513   -9.1722 C.3       1 <0>        -0.1489
     21 C17         5.3485    2.9094  -10.1122 C.3       1 <0>        -0.0077
     22 N3          4.6743    2.7141  -11.4014 N.4       1 <0>        -0.5047
     23 C18         5.1747    1.4953  -12.0485 C.3       1 <0>        -0.0116
     24 C19         4.8211    0.2773  -11.1904 C.3       1 <0>        -0.1358
     25 C20         8.2702   -1.7866  -10.2104 C.2       1 <0>         0.5801
     26 O2          8.3667   -2.9658   -9.9308 O.2       1 <0>        -0.4882
     27 C21         9.1881   -1.1844  -11.1986 C.ar      1 <0>        -0.1262
     28 C22         9.6243    0.1328  -11.0390 C.ar      1 <0>        -0.0734
     29 C23        10.4808    0.6894  -11.9645 C.ar      1 <0>        -0.1148
     30 C24        10.9093   -0.0543  -13.0524 C.ar      1 <0>        -0.0004
     31 C25        10.4810   -1.3602  -13.2177 C.ar      1 <0>        -0.1064
     32 C26         9.6282   -1.9319  -12.2941 C.ar      1 <0>         0.0222
     33 Cl1         9.0977   -3.5722  -12.4980 Cl        1 <0>        -0.0164
     34 Cl2        11.9876    0.6550  -14.2134 Cl        1 <0>        -0.0356
     35 H2         -0.3697    1.7142   -0.6993 H         1 <0>         0.0562
     36 H3         -0.0713    3.3967   -1.1975 H         1 <0>         0.0553
     37 H4         -1.3458    3.0330   -0.0094 H         1 <0>         0.0617
     38 H5         -2.6150    1.8019   -1.7478 H         1 <0>         0.0745
     39 H6         -2.3166    3.4845   -2.2460 H         1 <0>         0.0738
     40 H7         -0.7089    3.9959   -3.9947 H         1 <0>         0.1231
     41 H8          0.4418    3.1928   -6.0181 H         1 <0>         0.1182
     42 H9         -0.2890   -0.8386   -4.8334 H         1 <0>         0.1223
     43 H10        -1.4324   -0.0355   -2.8059 H         1 <0>         0.1247
     44 H11         0.4222   -0.3179   -7.0954 H         1 <0>         0.0802
     45 H12         0.7268    1.3646   -7.5900 H         1 <0>         0.0751
     46 H13         2.7688    1.4083   -6.1840 H         1 <0>         0.0736
     47 H14         2.4642   -0.2742   -5.6894 H         1 <0>         0.0757
     48 H15         2.5219   -0.1727   -8.5112 H         1 <0>         0.3993
     49 H16         6.7525   -1.0483   -7.5738 H         1 <0>         0.1024
     50 H17         6.2809   -2.5040   -8.5038 H         1 <0>         0.0993
     51 H18         7.4351    1.0441   -9.1659 H         1 <0>         0.0898
     52 H19         7.3078    0.6581  -10.9101 H         1 <0>         0.0887
     53 H20         3.9257    1.7292   -9.0031 H         1 <0>         0.1006
     54 H21         5.5177    1.8878   -8.2215 H         1 <0>         0.1247
     55 H22         5.0181    3.8485   -9.6683 H         1 <0>         0.1403
     56 H23         6.4269    2.9410  -10.2676 H         1 <0>         0.1328
     57 H24         3.6803    2.6291  -11.2502 H         1 <0>         0.4286
     58 H25         4.7164    1.3920  -13.0320 H         1 <0>         0.1410
     59 H26         6.2573    1.5605  -12.1577 H         1 <0>         0.1320
     60 H27         5.2087   -0.6254  -11.6626 H         1 <0>         0.1194
     61 H28         3.7379    0.2020  -11.0944 H         1 <0>         0.0986
     62 H29         9.2909    0.7142  -10.1922 H         1 <0>         0.1451
     63 H30        10.8184    1.7078  -11.8416 H         1 <0>         0.1491
     64 H31        10.8179   -1.9345  -14.0680 H         1 <0>         0.1561
     65 H32         4.8545    3.5080  -11.9974 H         1 <0>         0.4347
@<TRIPOS>BOND
     1    1    2 1
     2    1   35 1
     3    1   36 1
     4    1   37 1
     5    2    3 1
     6    2   38 1
     7    2   39 1
     8    3    8 ar
     9    3    4 ar
    10    4    5 ar
    11    4   40 1
    12    5    6 ar
    13    5   41 1
    14    6    7 ar
    15    6    9 1
    16    7    8 ar
    17    7   42 1
    18    8   43 1
    19    9   10 1
    20    9   44 1
    21    9   45 1
    22   10   11 1
    23   10   46 1
    24   10   47 1
    25   11   12 am
    26   11   48 1
    27   12   13 2
    28   12   14 1
    29   14   15 1
    30   14   19 1
    31   14   16 1
    32   16   17 1
    33   16   49 1
    34   16   50 1
    35   17   18 1
    36   17   25 am
    37   18   19 1
    38   18   51 1
    39   18   52 1
    40   19   24 1
    41   19   20 1
    42   20   21 1
    43   20   53 1
    44   20   54 1
    45   21   22 1
    46   21   55 1
    47   21   56 1
    48   22   23 1
    49   22   57 1
    50   22   65 1
    51   23   24 1
    52   23   58 1
    53   23   59 1
    54   24   60 1
    55   24   61 1
    56   25   26 2
    57   25   27 1
    58   27   32 ar
    59   27   28 ar
    60   28   29 ar
    61   28   62 1
    62   29   30 ar
    63   29   63 1
    64   30   31 ar
    65   30   34 1
    66   31   32 ar
    67   31   64 1
    68   32   33 1
@<TRIPOS>MOLECULE
ZINC44844321
   62    64     0     0     0
SMALL
USER_CHARGES

@<TRIPOS>ATOM
      1 C1         -3.9628   -2.9638   -0.1710 C.3       1 <0>        -0.1860
      2 C2         -2.9423   -2.0152    0.4612 C.3       1 <0>        -0.0183
      3 N1         -1.6773   -2.0912   -0.2818 N.4       1 <0>        -0.3849
      4 C3         -1.8776   -1.5778   -1.6435 C.3       1 <0>        -0.0155
      5 C4         -0.6010   -1.7873   -2.4604 C.3       1 <0>        -0.1883
      6 C5         -0.6588   -1.2826    0.4015 C.3       1 <0>         0.0432
      7 C6         -0.3645   -1.8823    1.7523 C.ar      1 <0>        -0.1806
      8 C7         -1.0959   -1.4865    2.8571 C.ar      1 <0>        -0.0734
      9 C8         -0.8284   -2.0338    4.0966 C.ar      1 <0>        -0.1185
     10 C9          0.1763   -2.9831    4.2326 C.ar      1 <0>         0.1923
     11 C10         0.9088   -3.3788    3.1209 C.ar      1 <0>        -0.1436
     12 C11         0.6328   -2.8314    1.8834 C.ar      1 <0>        -0.0689
     13 N2          0.4501   -3.5389    5.4864 N.am      1 <0>        -0.6757
     14 C12        -0.5514   -3.7495    6.3634 C.2       1 <0>         0.5638
     15 O1         -1.7029   -3.5441    6.0319 O.2       1 <0>        -0.4845
     16 C13        -0.2498   -4.2301    7.7276 C.ar      1 <0>        -0.1233
     17 C14         1.0716   -4.4612    8.1127 C.ar      1 <0>        -0.0858
     18 C15         1.3465   -4.9114    9.3941 C.ar      1 <0>         0.1482
     19 C16         0.3079   -5.1320   10.2919 C.ar      1 <0>        -0.1055
     20 C17        -1.0007   -4.9036    9.9121 C.ar      1 <0>        -0.0902
     21 C18        -1.2860   -4.4492    8.6388 C.ar      1 <0>         0.0111
     22 Cl1        -2.9316   -4.1576    8.1692 Cl        1 <0>        -0.0208
     23 N3          2.6684   -5.1442    9.7841 N.pl3     1 <0>        -1.0578
     24 S1          3.2126   -4.5811   11.2432 S.o2      1 <0>         2.6873
     25 O2          2.3031   -5.0555   12.2265 O.2       1 <0>        -0.9428
     26 O3          4.6045   -4.8629   11.2938 O.2       1 <0>        -0.9401
     27 C19         3.0548   -2.8264   11.2161 C.ar      1 <0>        -0.6856
     28 C20         4.0525   -2.0512   10.6552 C.ar      1 <0>        -0.0134
     29 C21         3.9287   -0.6746   10.6339 C.ar      1 <0>        -0.1420
     30 C22         2.8069   -0.0731   11.1731 C.ar      1 <0>        -0.0211
     31 C23         1.8087   -0.8483   11.7331 C.ar      1 <0>        -0.1403
     32 C24         1.9306   -2.2252   11.7506 C.ar      1 <0>        -0.0126
     33 C25         2.6724    1.4277   11.1507 C.3       1 <0>        -0.1286
     34 H1         -4.8699   -2.9768    0.4333 H         1 <0>         0.1053
     35 H2         -4.2019   -2.6216   -1.1779 H         1 <0>         0.0799
     36 H3         -3.5437   -3.9689   -0.2188 H         1 <0>         0.0786
     37 H4         -3.3240   -0.9948    0.4254 H         1 <0>         0.1285
     38 H5         -2.7723   -2.3034    1.4985 H         1 <0>         0.1323
     39 H6         -2.7026   -2.1115   -2.1153 H         1 <0>         0.1318
     40 H7         -2.1107   -0.5139   -1.6001 H         1 <0>         0.1293
     41 H8          0.2021   -1.1809   -2.0415 H         1 <0>         0.0804
     42 H9         -0.3171   -2.8391   -2.4275 H         1 <0>         0.0793
     43 H10        -0.7785   -1.4910   -3.4943 H         1 <0>         0.1058
     44 H11         0.2530   -1.2666   -0.1954 H         1 <0>         0.1372
     45 H12        -1.0279   -0.2649    0.5284 H         1 <0>         0.1343
     46 H13        -1.8771   -0.7483    2.7506 H         1 <0>         0.1346
     47 H14        -1.3996   -1.7237    4.9591 H         1 <0>         0.1468
     48 H15         1.6910   -4.1164    3.2234 H         1 <0>         0.1390
     49 H16         1.1990   -3.1418    1.0177 H         1 <0>         0.1355
     50 H17         1.3608   -3.7729    5.7248 H         1 <0>         0.4157
     51 H18         1.8772   -4.2901    7.4141 H         1 <0>         0.1401
     52 H19         0.5250   -5.4836   11.2898 H         1 <0>         0.1746
     53 H20        -1.8029   -5.0773   10.6140 H         1 <0>         0.1557
     54 H21         3.2670   -5.6357    9.2001 H         1 <0>         0.4314
     55 H22         4.9290   -2.5212   10.2339 H         1 <0>         0.1400
     56 H23         4.7085   -0.0690   10.1963 H         1 <0>         0.1351
     57 H24         0.9325   -0.3784   12.1547 H         1 <0>         0.1357
     58 H25         1.1491   -2.8310   12.1848 H         1 <0>         0.1422
     59 H26         2.1713    1.7339   10.2324 H         1 <0>         0.0802
     60 H27         2.0862    1.7528   12.0102 H         1 <0>         0.0762
     61 H28         3.6623    1.8819   11.1934 H         1 <0>         0.0757
     62 H29        -1.3704   -3.0514   -0.3261 H         1 <0>         0.4211
@<TRIPOS>BOND
     1    1    2 1
     2    1   34 1
     3    1   35 1
     4    1   36 1
     5    2    3 1
     6    2   37 1
     7    2   38 1
     8    3    4 1
     9    3    6 1
    10    3   62 1
    11    4    5 1
    12    4   39 1
    13    4   40 1
    14    5   41 1
    15    5   42 1
    16    5   43 1
    17    6    7 1
    18    6   44 1
    19    6   45 1
    20    7   12 ar
    21    7    8 ar
    22    8    9 ar
    23    8   46 1
    24    9   10 ar
    25    9   47 1
    26   10   11 ar
    27   10   13 1
    28   11   12 ar
    29   11   48 1
    30   12   49 1
    31   13   14 am
    32   13   50 1
    33   14   15 2
    34   14   16 1
    35   16   21 ar
    36   16   17 ar
    37   17   18 ar
    38   17   51 1
    39   18   19 ar
    40   18   23 1
    41   19   20 ar
    42   19   52 1
    43   20   21 ar
    44   20   53 1
    45   21   22 1
    46   23   24 1
    47   23   54 1
    48   24   25 2
    49   24   26 2
    50   24   27 1
    51   27   32 ar
    52   27   28 ar
    53   28   29 ar
    54   28   55 1
    55   29   30 ar
    56   29   56 1
    57   30   31 ar
    58   30   33 1
    59   31   32 ar
    60   31   57 1
    61   32   58 1
    62   33   59 1
    63   33   60 1
    64   33   61 1
@<TRIPOS>MOLECULE
ZINC64636361
   65    69     0     0     0
SMALL
USER_CHARGES

@<TRIPOS>ATOM
      1 C1         -0.0125    1.5351    0.0193 C.3       1 <0>        -0.1519
      2 C2          0.0124    0.0054    0.0044 C.3       1 <0>         0.0625
      3 H1         -1.0032   -0.3902    0.0172 H         1 <0>         0.1039
      4 C3          0.7582   -0.4973   -1.2119 C.2       1 <0>         0.1247
      5 N1          1.5398   -1.4433   -0.8482 N.2       1 <0>        -0.4819
      6 C4          1.4050   -1.6697    0.5955 C.3       1 <0>         0.2462
      7 H2          0.7896   -2.5500    0.7808 H         1 <0>         0.1033
      8 O1          0.7608   -0.4957    1.1309 O.3       1 <0>        -0.3619
      9 C5          2.7645   -1.8479    1.2210 C.ar      1 <0>        -0.1196
     10 C6          3.9010   -1.5076    0.5135 C.ar      1 <0>        -0.0682
     11 C7          5.1487   -1.6712    1.0864 C.ar      1 <0>        -0.1396
     12 C8          5.2632   -2.1754    2.3692 C.ar      1 <0>        -0.0872
     13 C9          4.1310   -2.5175    3.0819 C.ar      1 <0>        -0.1224
     14 C10         2.8757   -2.3490    2.5113 C.ar      1 <0>         0.1724
     15 N2          1.7268   -2.6890    3.2325 N.am      1 <0>        -0.6717
     16 C11         1.7473   -3.7394    4.0767 C.2       1 <0>         0.5618
     17 O2          2.7853   -4.3409    4.2735 O.2       1 <0>        -0.5111
     18 C12         0.5078   -4.1602    4.7632 C.ar      1 <0>        -0.1426
     19 C13        -0.6870   -3.4754    4.5350 C.ar      1 <0>        -0.0867
     20 C14        -1.8404   -3.8736    5.1786 C.ar      1 <0>        -0.1257
     21 C15        -1.8147   -4.9491    6.0487 C.ar      1 <0>        -0.0866
     22 C16        -0.6337   -5.6319    6.2797 C.ar      1 <0>        -0.1249
     23 C17         0.5256   -5.2477    5.6382 C.ar      1 <0>        -0.0548
     24 C18         0.6060    0.0273   -2.6164 C.3       1 <0>         0.1825
     25 N3          1.4957   -0.7139   -3.5137 N.am      1 <0>        -0.7219
     26 C19         1.5293   -0.4150   -4.8275 C.2       1 <0>         0.5165
     27 O3          0.8229    0.4675   -5.2669 O.2       1 <0>        -0.5308
     28 C20         2.4446   -1.1775   -5.7505 C.3       1 <0>        -0.1380
     29 C21         2.2900   -0.6448   -7.1764 C.3       1 <0>        -0.0780
     30 C22         3.2053   -1.4073   -8.0994 C.2       1 <0>         0.0729
     31 C23         2.8854   -2.4808   -8.8575 C.ar      1 <0>        -0.1730
     32 C24         1.6379   -3.2319   -9.0416 C.ar      1 <0>        -0.0097
     33 C25         1.6261   -4.2869   -9.8877 C.ar      1 <0>        -0.1533
     34 C26         2.7728   -4.6804  -10.5911 C.ar      1 <0>         0.0548
     35 C27         3.9554   -4.0401  -10.4744 C.ar      1 <0>        -0.2109
     36 C28         4.0822   -2.9162   -9.6122 C.ar      1 <0>         0.3271
     37 N4          5.1023   -2.1420   -9.3317 N.pl3     1 <0>        -0.5876
     38 C29         4.6657   -1.1229   -8.3707 C.3       1 <0>         0.0592
     39 H3          1.0090    1.9152    0.0188 H         1 <0>         0.0685
     40 H4         -0.5359    1.8986   -0.8650 H         1 <0>         0.0811
     41 H5         -0.5286    1.8813    0.9148 H         1 <0>         0.0770
     42 H6          3.8150   -1.1136   -0.4884 H         1 <0>         0.1272
     43 H7          6.0358   -1.4051    0.5309 H         1 <0>         0.1259
     44 H8          6.2393   -2.3020    2.8139 H         1 <0>         0.1307
     45 H9          4.2212   -2.9118    4.0833 H         1 <0>         0.1451
     46 H10         0.9151   -2.1689    3.1251 H         1 <0>         0.4129
     47 H11        -0.7083   -2.6355    3.8564 H         1 <0>         0.1233
     48 H12        -2.7654   -3.3444    5.0033 H         1 <0>         0.1320
     49 H13        -2.7205   -5.2567    6.5500 H         1 <0>         0.1317
     50 H14        -0.6203   -6.4701    6.9606 H         1 <0>         0.1344
     51 H15         1.4458   -5.7845    5.8157 H         1 <0>         0.1386
     52 H16        -0.4265   -0.0999   -2.9419 H         1 <0>         0.1062
     53 H17         0.8663    1.0855   -2.6391 H         1 <0>         0.1075
     54 H18         2.0607   -1.4197   -3.1623 H         1 <0>         0.4154
     55 H19         3.4771   -1.0503   -5.4250 H         1 <0>         0.1066
     56 H20         2.1842   -2.2357   -5.7277 H         1 <0>         0.1070
     57 H21         1.2576   -0.7721   -7.5019 H         1 <0>         0.1180
     58 H22         2.5504    0.4134   -7.1992 H         1 <0>         0.1208
     59 H23         0.7427   -2.9465   -8.5090 H         1 <0>         0.1610
     60 H24         0.7092   -4.8409  -10.0246 H         1 <0>         0.1575
     61 H25         2.7076   -5.5309  -11.2535 H         1 <0>         0.1604
     62 H26         4.8100   -4.3835  -11.0385 H         1 <0>         0.1599
     63 H27         4.7815   -0.1267   -8.7976 H         1 <0>         0.1752
     64 H28         5.2422   -1.2069   -7.4495 H         1 <0>         0.1730
     65 H29         5.9953   -2.2263   -9.7009 H         1 <0>         0.4554
@<TRIPOS>BOND
     1    1    2 1
     2    1   39 1
     3    1   40 1
     4    1   41 1
     5    2    3 1
     6    2    8 1
     7    2    4 1
     8    4    5 2
     9    4   24 1
    10    5    6 1
    11    6    7 1
    12    6    8 1
    13    6    9 1
    14    9   14 ar
    15    9   10 ar
    16   10   11 ar
    17   10   42 1
    18   11   12 ar
    19   11   43 1
    20   12   13 ar
    21   12   44 1
    22   13   14 ar
    23   13   45 1
    24   14   15 1
    25   15   16 am
    26   15   46 1
    27   16   17 2
    28   16   18 1
    29   18   23 ar
    30   18   19 ar
    31   19   20 ar
    32   19   47 1
    33   20   21 ar
    34   20   48 1
    35   21   22 ar
    36   21   49 1
    37   22   23 ar
    38   22   50 1
    39   23   51 1
    40   24   25 1
    41   24   52 1
    42   24   53 1
    43   25   26 am
    44   25   54 1
    45   26   27 2
    46   26   28 1
    47   28   29 1
    48   28   55 1
    49   28   56 1
    50   29   30 1
    51   29   57 1
    52   29   58 1
    53   30   38 1
    54   30   31 2
    55   31   36 ar
    56   31   32 ar
    57   32   33 ar
    58   32   59 1
    59   33   34 ar
    60   33   60 1
    61   34   35 ar
    62   34   61 1
    63   35   36 ar
    64   35   62 1
    65   36   37 2
    66   37   38 1
    67   37   65 1
    68   38   63 1
    69   38   64 1
@<TRIPOS>MOLECULE
ZINC08672719
   38    39     0     0     0
SMALL
USER_CHARGES
4-bromo-N-[(1S)-2,2,2-trichloro-1-[[(3S)-1,1-dioxothiolan-3-yl]amino]ethyl]benzamide
@<TRIPOS>ATOM
      1 C1          1.2040   -0.6801   -0.0131 C.ar      1 <0>        -0.0366
      2 C2          0.0021   -0.0041    0.0020 C.ar      1 <0>        -0.0940
      3 C3         -0.0167    1.3806    0.0096 C.ar      1 <0>        -0.0502
      4 C4          1.1696    2.0948    0.0021 C.ar      1 <0>        -0.0950
      5 C5          2.3779    1.4302   -0.0129 C.ar      1 <0>        -0.0749
      6 C6          2.4034    0.0343   -0.0207 C.ar      1 <0>        -0.1460
      7 C7          3.6949   -0.6841   -0.0363 C.2       1 <0>         0.5831
      8 O1          3.7143   -1.8995   -0.0426 O.2       1 <0>        -0.4912
      9 N1          4.8512    0.0083   -0.0436 N.am      1 <0>        -0.7300
     10 C8          6.1313   -0.7038   -0.0592 C.3       1 <0>         0.2562
     11 H1          5.9638   -1.7465   -0.3289 H         1 <0>         0.2084
     12 C9          7.0633   -0.0552   -1.0847 C.3       1 <0>         0.0480
     13 Cl1         7.3404    1.6696   -0.6386 Cl        1 <0>        -0.0429
     14 Cl2         8.6389   -0.9316   -1.1038 Cl        1 <0>        -0.0303
     15 Cl3         6.3089   -0.1392   -2.7201 Cl        1 <0>         0.0088
     16 C10         6.6239   -1.9195    1.9760 C.3       1 <0>         0.0277
     17 H2          5.6729   -2.3848    1.7168 H         1 <0>         0.1733
     18 C11         7.7761   -2.8452    1.5516 C.3       1 <0>        -0.1663
     19 C12         7.8077   -4.0572    2.5260 C.3       1 <0>        -0.5642
     20 S1          7.4780   -3.2099    4.1286 S.o2      1 <0>         2.3899
     21 O2          8.7171   -2.8702    4.7355 O.2       1 <0>        -0.8983
     22 O3          6.5227   -3.9640    4.8622 O.2       1 <0>        -0.8966
     23 C13         6.6776   -1.6765    3.5036 C.3       1 <0>        -0.6372
     24 Br1        -1.6692    2.2998    0.0224 Br        1 <0>        -0.0144
     25 H3          1.2174   -1.7600   -0.0186 H         1 <0>         0.1524
     26 H4         -0.9264   -0.5556    0.0083 H         1 <0>         0.1515
     27 H5          1.1486    3.1746    0.0081 H         1 <0>         0.1489
     28 H6          3.3025    1.9883   -0.0184 H         1 <0>         0.1328
     29 H7          4.8357    0.9782   -0.0386 H         1 <0>         0.4260
     30 H8          7.6103   -3.1961    0.5330 H         1 <0>         0.1302
     31 H9          8.7212   -2.3050    1.6052 H         1 <0>         0.1156
     32 H10         8.7867   -4.5363    2.5275 H         1 <0>         0.1677
     33 H11         7.0213   -4.7742    2.2901 H         1 <0>         0.1598
     34 H12         7.2852   -0.8016    3.7347 H         1 <0>         0.1635
     35 H13         5.6734   -1.5668    3.9130 H         1 <0>         0.1747
     36 N2          6.7507   -0.6266    1.2774 N.4       1 <0>        -0.5310
     37 H14         6.2811    0.1027    1.8267 H         1 <0>         0.4464
     38 H15         7.7453   -0.3922    1.1767 H         1 <0>         0.4341
@<TRIPOS>BOND
     1    1    6 ar
     2    1    2 ar
     3    1   25 1
     4    2    3 ar
     5    2   26 1
     6    3    4 ar
     7    3   24 1
     8    4    5 ar
     9    4   27 1
    10    5    6 ar
    11    5   28 1
    12    6    7 1
    13    7    8 2
    14    7    9 am
    15    9   10 1
    16    9   29 1
    17   10   11 1
    18   10   12 1
    19   10   36 1
    20   12   13 1
    21   12   14 1
    22   12   15 1
    23   16   17 1
    24   16   23 1
    25   16   18 1
    26   16   36 1
    27   18   19 1
    28   18   30 1
    29   18   31 1
    30   19   20 1
    31   19   32 1
    32   19   33 1
    33   20   21 2
    34   20   22 2
    35   20   23 1
    36   23   34 1
    37   23   35 1
    38   36   37 1
    39   36   38 1
@<TRIPOS>MOLECULE
ZINC39652873
   59    62     0     0     0
SMALL
USER_CHARGES

@<TRIPOS>ATOM
      1 C1          0.4535    1.6323   -0.0482 C.ar      1 <0>        -0.0871
      2 C2          1.6026    2.1314   -0.6355 C.ar      1 <0>        -0.1233
      3 C3          2.7518    1.3687   -0.6674 C.ar      1 <0>        -0.0574
      4 C4          2.7535    0.0910   -0.1056 C.ar      1 <0>        -0.1361
      5 C5          1.5909   -0.4064    0.4853 C.ar      1 <0>        -0.0982
      6 C6          0.4485    0.3665    0.5105 C.ar      1 <0>        -0.1268
      7 C7          3.9813   -0.7320   -0.1366 C.2       1 <0>         0.5954
      8 O1          5.0653   -0.2012   -0.2798 O.2       1 <0>        -0.5293
      9 N1          3.8985   -2.0709   -0.0062 N.am      1 <0>        -0.6151
     10 C8          2.6744   -2.9045    0.0452 C.3       1 <0>         0.1043
     11 C9          3.0270   -4.1667   -0.7732 C.3       1 <0>        -0.1161
     12 H1          2.5813   -5.0511   -0.3179 H         1 <0>         0.1181
     13 C10         4.5616   -4.2528   -0.7200 C.3       1 <0>        -0.0726
     14 C11         5.0118   -3.0430    0.1118 C.3       1 <0>         0.1071
     15 C12         4.9951   -5.5503   -0.0446 C.3       1 <0>        -0.1335
     16 C13         6.5237   -5.6402   -0.0557 C.3       1 <0>        -0.0103
     17 N2          7.0081   -5.6006   -1.4407 N.4       1 <0>        -0.5043
     18 C14         6.6673   -4.3110   -2.0536 C.3       1 <0>        -0.0093
     19 C15         5.1448   -4.1651   -2.1271 C.3       1 <0>        -0.1463
     20 C16         2.5567   -4.0173   -2.1971 C.2       1 <0>         0.5138
     21 O2          2.5039   -2.9177   -2.7061 O.2       1 <0>        -0.5116
     22 N3          2.1946   -5.1056   -2.9049 N.am      1 <0>        -0.7308
     23 C17         1.7373   -4.9603   -4.2891 C.3       1 <0>         0.1214
     24 C18         1.3905   -6.3373   -4.8589 C.3       1 <0>        -0.0895
     25 C19         0.9201   -6.1878   -6.2827 C.ar      1 <0>        -0.0770
     26 C20        -0.4216   -5.9893   -6.5500 C.ar      1 <0>        -0.1058
     27 C21        -0.8534   -5.8517   -7.8557 C.ar      1 <0>        -0.0859
     28 C22         0.0572   -5.9127   -8.8952 C.ar      1 <0>        -0.0882
     29 C23         1.3996   -6.1114   -8.6273 C.ar      1 <0>        -0.0881
     30 C24         1.8313   -6.2436   -7.3209 C.ar      1 <0>        -0.1085
     31 Br1        -0.5331   -5.7252  -10.6819 Br        1 <0>        -0.0400
     32 H2         -0.4422    2.2352   -0.0219 H         1 <0>         0.1313
     33 H3          1.5998    3.1200   -1.0702 H         1 <0>         0.1339
     34 H4          3.6479    1.7593   -1.1264 H         1 <0>         0.1339
     35 H5          1.5856   -1.3944    0.9215 H         1 <0>         0.1321
     36 H6         -0.4517   -0.0172    0.9673 H         1 <0>         0.1310
     37 H7          2.4402   -3.1727    1.0754 H         1 <0>         0.0921
     38 H8          1.8364   -2.3776   -0.4111 H         1 <0>         0.1084
     39 H9          5.9299   -2.6214   -0.2973 H         1 <0>         0.0894
     40 H10         5.1557   -3.3320    1.1529 H         1 <0>         0.0857
     41 H11         4.6373   -5.5618    0.9849 H         1 <0>         0.1222
     42 H12         4.5767   -6.3993   -0.5853 H         1 <0>         0.0976
     43 H13         6.9408   -4.7997    0.4990 H         1 <0>         0.1332
     44 H14         6.8359   -6.5741    0.4116 H         1 <0>         0.1404
     45 H15         8.0099   -5.7211   -1.4488 H         1 <0>         0.4344
     46 H16         7.0810   -3.5022   -1.4514 H         1 <0>         0.1349
     47 H17         7.0855   -4.2651   -3.0592 H         1 <0>         0.1384
     48 H18         4.7319   -4.9643   -2.7426 H         1 <0>         0.0945
     49 H19         4.8925   -3.1997   -2.5660 H         1 <0>         0.1239
     50 H20         2.2367   -5.9850   -2.4978 H         1 <0>         0.4001
     51 H21         0.8531   -4.3233   -4.3147 H         1 <0>         0.0757
     52 H22         2.5282   -4.5081   -4.8875 H         1 <0>         0.0725
     53 H23         2.2747   -6.9742   -4.8333 H         1 <0>         0.0798
     54 H24         0.5996   -6.7894   -4.2605 H         1 <0>         0.0846
     55 H25        -1.1325   -5.9420   -5.7384 H         1 <0>         0.1328
     56 H26        -1.9017   -5.6969   -8.0644 H         1 <0>         0.1367
     57 H27         2.1109   -6.1590   -9.4386 H         1 <0>         0.1353
     58 H28         2.8799   -6.3946   -7.1114 H         1 <0>         0.1289
     59 H29         6.5781   -6.3460   -1.9675 H         1 <0>         0.4271
@<TRIPOS>BOND
     1    1    6 ar
     2    1    2 ar
     3    1   32 1
     4    2    3 ar
     5    2   33 1
     6    3    4 ar
     7    3   34 1
     8    4    5 ar
     9    4    7 1
    10    5    6 ar
    11    5   35 1
    12    6   36 1
    13    7    8 2
    14    7    9 am
    15    9   14 1
    16    9   10 1
    17   10   11 1
    18   10   37 1
    19   10   38 1
    20   11   12 1
    21   11   13 1
    22   11   20 1
    23   13   19 1
    24   13   14 1
    25   13   15 1
    26   14   39 1
    27   14   40 1
    28   15   16 1
    29   15   41 1
    30   15   42 1
    31   16   17 1
    32   16   43 1
    33   16   44 1
    34   17   18 1
    35   17   45 1
    36   17   59 1
    37   18   19 1
    38   18   46 1
    39   18   47 1
    40   19   48 1
    41   19   49 1
    42   20   21 2
    43   20   22 am
    44   22   23 1
    45   22   50 1
    46   23   24 1
    47   23   51 1
    48   23   52 1
    49   24   25 1
    50   24   53 1
    51   24   54 1
    52   25   30 ar
    53   25   26 ar
    54   26   27 ar
    55   26   55 1
    56   27   28 ar
    57   27   56 1
    58   28   29 ar
    59   28   31 1
    60   29   30 ar
    61   29   57 1
    62   30   58 1
@<TRIPOS>MOLECULE
ZINC39667147
   68    72     0     0     0
SMALL
USER_CHARGES

@<TRIPOS>ATOM
      1 C1         -2.8719    1.4636   -2.3651 C.3       1 <0>        -0.1207
      2 C2         -2.8592   -0.0433   -2.3702 C.ar      1 <0>        -0.0742
      3 C3         -4.0500   -0.7448   -2.3346 C.ar      1 <0>        -0.1253
      4 C4         -4.0383   -2.1269   -2.3393 C.ar      1 <0>        -0.1059
      5 C5         -2.8357   -2.8079   -2.3800 C.ar      1 <0>        -0.1005
      6 C6         -1.6453   -2.1066   -2.4165 C.ar      1 <0>        -0.0718
      7 C7         -1.6572   -0.7241   -2.4161 C.ar      1 <0>        -0.1185
      8 C8         -0.3345   -2.8489   -2.4604 C.3       1 <0>        -0.1216
      9 C9         -2.8229   -4.3148   -2.3841 C.3       1 <0>        -0.0861
     10 C10        -2.6463   -4.8272   -0.9533 C.3       1 <0>         0.1209
     11 N1         -2.6339   -6.2922   -0.9573 N.am      1 <0>        -0.7314
     12 C11        -2.4888   -6.9680    0.1997 C.2       1 <0>         0.5121
     13 O1         -2.3685   -6.3634    1.2441 O.2       1 <0>        -0.5095
     14 C12        -2.4760   -8.4749    0.1956 C.3       1 <0>        -0.1142
     15 H1         -2.1150   -8.8481   -0.7629 H         1 <0>         0.1169
     16 C13        -1.5947   -9.0086    1.3471 C.3       1 <0>         0.1212
     17 N2         -2.5436   -9.2685    2.4553 N.am      1 <0>        -0.6138
     18 C14        -3.7407   -9.8364    1.7901 C.3       1 <0>         0.0976
     19 C15        -3.8827   -9.0232    0.4881 C.3       1 <0>        -0.0717
     20 C16        -4.8662   -7.8743    0.6895 C.3       1 <0>        -0.1473
     21 C17        -6.2683   -8.4441    0.9226 C.3       1 <0>        -0.0094
     22 N3         -6.6658   -9.2583   -0.2324 N.4       1 <0>        -0.5046
     23 C18        -5.7691  -10.4129   -0.3637 C.3       1 <0>        -0.0100
     24 C19        -4.3458   -9.9265   -0.6508 C.3       1 <0>        -0.1345
     25 C20        -2.3599   -9.0401    3.7708 C.2       1 <0>         0.5978
     26 O2         -1.3529   -8.4755    4.1555 O.2       1 <0>        -0.5062
     27 C21        -3.3748   -9.4724    4.7397 C.2       1 <0>        -0.1488
     28 C22        -4.0840  -10.6151    4.5484 C.2       1 <0>        -0.2060
     29 S1         -5.1132  -10.7274    5.8678 S.3       1 <0>         0.1768
     30 C23        -4.6566   -9.2591    6.7476 C.ar      1 <0>        -0.1432
     31 C24        -3.6500   -8.6881    5.9459 C.ar      1 <0>        -0.0640
     32 C25        -3.0720   -7.4855    6.3950 C.ar      1 <0>        -0.0642
     33 C26        -3.4849   -6.9136    7.5726 C.ar      1 <0>        -0.1126
     34 C27        -4.4756   -7.4992    8.3473 C.ar      1 <0>        -0.0878
     35 C28        -5.0681   -8.6738    7.9260 C.ar      1 <0>        -0.0750
     36 H2         -2.9125    1.8301   -3.3908 H         1 <0>         0.0741
     37 H3         -3.7456    1.8177   -1.8180 H         1 <0>         0.0686
     38 H4         -1.9669    1.8330   -1.8828 H         1 <0>         0.0690
     39 H5         -4.9894   -0.2129   -2.3028 H         1 <0>         0.1231
     40 H6         -4.9685   -2.6749   -2.3108 H         1 <0>         0.1185
     41 H7         -0.7271   -0.1760   -2.4484 H         1 <0>         0.1246
     42 H8         -0.0515   -3.0253   -3.4981 H         1 <0>         0.0733
     43 H9          0.4362   -2.2546   -1.9696 H         1 <0>         0.0700
     44 H10        -0.4402   -3.8036   -1.9453 H         1 <0>         0.0664
     45 H11        -3.7648   -4.6851   -2.7890 H         1 <0>         0.0748
     46 H12        -1.9976   -4.6695   -3.0015 H         1 <0>         0.0818
     47 H13        -1.7045   -4.4570   -0.5485 H         1 <0>         0.0754
     48 H14        -3.4716   -4.4726   -0.3359 H         1 <0>         0.0707
     49 H15        -2.7301   -6.7757   -1.7927 H         1 <0>         0.3989
     50 H16        -1.0972   -9.9314    1.0486 H         1 <0>         0.0884
     51 H17        -0.8610   -8.2588    1.6430 H         1 <0>         0.1013
     52 H18        -3.5855  -10.8913    1.5636 H         1 <0>         0.0865
     53 H19        -4.6222   -9.7069    2.4179 H         1 <0>         0.0873
     54 H20        -4.5645   -7.2846    1.5552 H         1 <0>         0.1241
     55 H21        -4.8734   -7.2416   -0.1980 H         1 <0>         0.0964
     56 H22        -6.2641   -9.0637    1.8194 H         1 <0>         0.1325
     57 H23        -6.9764   -7.6253    1.0506 H         1 <0>         0.1390
     58 H24        -7.6126   -9.5823   -0.1039 H         1 <0>         0.4342
     59 H25        -5.7768  -10.9860    0.5635 H         1 <0>         0.1320
     60 H26        -6.1091  -11.0452   -1.1839 H         1 <0>         0.1409
     61 H27        -4.3341   -9.3674   -1.5864 H         1 <0>         0.0985
     62 H28        -3.6773  -10.7837   -0.7301 H         1 <0>         0.1226
     63 H29        -4.0025  -11.3051    3.7215 H         1 <0>         0.1886
     64 H30        -2.2988   -7.0102    5.8097 H         1 <0>         0.1349
     65 H31        -3.0299   -5.9913    7.9022 H         1 <0>         0.1340
     66 H32        -4.7878   -7.0348    9.2710 H         1 <0>         0.1401
     67 H33        -5.8398   -9.1375    8.5225 H         1 <0>         0.1366
     68 H34        -6.6156   -8.6982   -1.0702 H         1 <0>         0.4284
@<TRIPOS>BOND
     1    1    2 1
     2    1   36 1
     3    1   37 1
     4    1   38 1
     5    2    7 ar
     6    2    3 ar
     7    3    4 ar
     8    3   39 1
     9    4    5 ar
    10    4   40 1
    11    5    6 ar
    12    5    9 1
    13    6    7 ar
    14    6    8 1
    15    7   41 1
    16    8   42 1
    17    8   43 1
    18    8   44 1
    19    9   10 1
    20    9   45 1
    21    9   46 1
    22   10   11 1
    23   10   47 1
    24   10   48 1
    25   11   12 am
    26   11   49 1
    27   12   13 2
    28   12   14 1
    29   14   15 1
    30   14   19 1
    31   14   16 1
    32   16   17 1
    33   16   50 1
    34   16   51 1
    35   17   18 1
    36   17   25 am
    37   18   19 1
    38   18   52 1
    39   18   53 1
    40   19   24 1
    41   19   20 1
    42   20   21 1
    43   20   54 1
    44   20   55 1
    45   21   22 1
    46   21   56 1
    47   21   57 1
    48   22   23 1
    49   22   58 1
    50   22   68 1
    51   23   24 1
    52   23   59 1
    53   23   60 1
    54   24   61 1
    55   24   62 1
    56   25   26 2
    57   25   27 1
    58   27   31 1
    59   27   28 2
    60   28   29 1
    61   28   63 1
    62   29   30 1
    63   30   35 ar
    64   30   31 ar
    65   31   32 ar
    66   32   33 ar
    67   32   64 1
    68   33   34 ar
    69   33   65 1
    70   34   35 ar
    71   34   66 1
    72   35   67 1
@<TRIPOS>MOLECULE
ZINC39685032
   60    63     0     0     0
SMALL
USER_CHARGES

@<TRIPOS>ATOM
      1 C1          5.2123   -4.9502   -4.8348 C.ar      1 <0>        -0.0835
      2 C2          5.8928   -6.1033   -5.1798 C.ar      1 <0>        -0.1217
      3 C3          5.5867   -7.3011   -4.5609 C.ar      1 <0>        -0.1138
      4 C4          4.5981   -7.3482   -3.5945 C.ar      1 <0>         0.0648
      5 C5          3.9140   -6.1904   -3.2466 C.ar      1 <0>         0.0927
      6 C6          4.2242   -4.9912   -3.8698 C.ar      1 <0>        -0.1806
      7 O1          2.9418   -6.2331   -2.2972 O.3       1 <0>        -0.3126
      8 C7          2.2803   -5.0041   -1.9904 C.3       1 <0>         0.0428
      9 C8          1.2268   -5.2484   -0.9081 C.3       1 <0>         0.1235
     10 N1          1.8882   -5.6533    0.3348 N.am      1 <0>        -0.7274
     11 C9          1.1537   -5.9231    1.4321 C.2       1 <0>         0.5132
     12 O2         -0.0549   -5.8307    1.3906 O.2       1 <0>        -0.5068
     13 C10         1.8341   -6.3397    2.7106 C.3       1 <0>        -0.1138
     14 H1          2.8289   -5.8984    2.7714 H         1 <0>         0.1186
     15 C11         0.9851   -5.9227    3.9324 C.3       1 <0>         0.1158
     16 N2          0.1839   -7.1257    4.2596 N.am      1 <0>        -0.6088
     17 C12         1.1181   -8.2582    4.0530 C.3       1 <0>         0.1078
     18 C13         1.9222   -7.8727    2.7954 C.3       1 <0>        -0.0721
     19 C14         3.3760   -8.3112    2.9430 C.3       1 <0>        -0.1338
     20 C15         3.4433   -9.8408    2.9664 C.3       1 <0>        -0.0097
     21 N3          2.8733  -10.3766    1.7244 N.4       1 <0>        -0.5048
     22 C16         1.4500  -10.0288    1.6358 C.3       1 <0>        -0.0084
     23 C17         1.2984   -8.5071    1.5561 C.3       1 <0>        -0.1476
     24 C18        -1.1032   -7.1783    4.6559 C.2       1 <0>         0.6053
     25 O3         -1.6241   -8.2519    4.8891 O.2       1 <0>        -0.5113
     26 C19        -1.8801   -5.9331    4.8068 C.ar      1 <0>        -0.2092
     27 C20        -2.6074   -5.4224    3.7262 C.ar      1 <0>         0.1766
     28 C21        -3.3328   -4.2555    3.8765 C.ar      1 <0>        -0.1664
     29 C22        -3.3408   -3.5929    5.0905 C.ar      1 <0>        -0.0364
     30 C23        -2.6243   -4.0905    6.1637 C.ar      1 <0>        -0.1653
     31 C24        -1.8984   -5.2595    6.0328 C.ar      1 <0>         0.1619
     32 F1         -1.2038   -5.7469    7.0840 F         1 <0>        -0.1222
     33 F2         -2.6002   -6.0676    2.5393 F         1 <0>        -0.1103
     34 F3          4.2981   -8.5187   -2.9901 F         1 <0>        -0.1400
     35 H2          5.4565   -4.0153   -5.3171 H         1 <0>         0.1374
     36 H3          6.6646   -6.0683   -5.9344 H         1 <0>         0.1396
     37 H4          6.1194   -8.2005   -4.8324 H         1 <0>         0.1445
     38 H5          3.6937   -4.0897   -3.6011 H         1 <0>         0.1390
     39 H6          3.0099   -4.2789   -1.6301 H         1 <0>         0.0756
     40 H7          1.7967   -4.6179   -2.8876 H         1 <0>         0.0874
     41 H8          0.6621   -4.3318   -0.7372 H         1 <0>         0.0973
     42 H9          0.5487   -6.0377   -1.2326 H         1 <0>         0.0835
     43 H10         2.8548   -5.7272    0.3680 H         1 <0>         0.4024
     44 H11         1.6297   -5.6561    4.7700 H         1 <0>         0.0928
     45 H12         0.3315   -5.0894    3.6745 H         1 <0>         0.0960
     46 H13         1.7826   -8.3646    4.9104 H         1 <0>         0.0885
     47 H14         0.5646   -9.1817    3.8826 H         1 <0>         0.0902
     48 H15         3.9570   -7.9342    2.1014 H         1 <0>         0.0984
     49 H16         3.7829   -7.9148    3.8733 H         1 <0>         0.1221
     50 H17         4.4826  -10.1572    3.0551 H         1 <0>         0.1403
     51 H18         2.8758  -10.2163    3.8179 H         1 <0>         0.1328
     52 H19         3.3637   -9.9849    0.9343 H         1 <0>         0.4291
     53 H20         1.0198  -10.4838    0.7436 H         1 <0>         0.1387
     54 H21         0.9299  -10.3997    2.5190 H         1 <0>         0.1336
     55 H22         0.2405   -8.2489    1.5084 H         1 <0>         0.1230
     56 H23         1.8043   -8.1373    0.6642 H         1 <0>         0.0991
     57 H24        -3.8948   -3.8598    3.0434 H         1 <0>         0.1519
     58 H25        -3.9095   -2.6814    5.2009 H         1 <0>         0.1533
     59 H26        -2.6357   -3.5666    7.1081 H         1 <0>         0.1532
     60 H27         2.9741  -11.3806    1.7153 H         1 <0>         0.4341
@<TRIPOS>BOND
     1    1    6 ar
     2    1    2 ar
     3    1   35 1
     4    2    3 ar
     5    2   36 1
     6    3    4 ar
     7    3   37 1
     8    4    5 ar
     9    4   34 1
    10    5    6 ar
    11    5    7 1
    12    6   38 1
    13    7    8 1
    14    8    9 1
    15    8   39 1
    16    8   40 1
    17    9   10 1
    18    9   41 1
    19    9   42 1
    20   10   11 am
    21   10   43 1
    22   11   12 2
    23   11   13 1
    24   13   14 1
    25   13   18 1
    26   13   15 1
    27   15   16 1
    28   15   44 1
    29   15   45 1
    30   16   17 1
    31   16   24 am
    32   17   18 1
    33   17   46 1
    34   17   47 1
    35   18   23 1
    36   18   19 1
    37   19   20 1
    38   19   48 1
    39   19   49 1
    40   20   21 1
    41   20   50 1
    42   20   51 1
    43   21   22 1
    44   21   52 1
    45   21   60 1
    46   22   23 1
    47   22   53 1
    48   22   54 1
    49   23   55 1
    50   23   56 1
    51   24   25 2
    52   24   26 1
    53   26   31 ar
    54   26   27 ar
    55   27   28 ar
    56   27   33 1
    57   28   29 ar
    58   28   57 1
    59   29   30 ar
    60   29   58 1
    61   30   31 ar
    62   30   59 1
    63   31   32 1
@<TRIPOS>MOLECULE
ZINC39696455
   65    67     0     0     0
SMALL
USER_CHARGES

@<TRIPOS>ATOM
      1 C1         -0.0557    1.5183   -0.0005 C.3       1 <0>        -0.1192
      2 C2         -0.0282    0.0116   -0.0091 C.ar      1 <0>        -0.1134
      3 C3         -0.0257   -0.6715   -1.2115 C.ar      1 <0>        -0.0584
      4 C4         -0.0009   -2.0546   -1.2299 C.ar      1 <0>        -0.1172
      5 C5          0.0218   -2.7648   -0.0460 C.ar      1 <0>         0.0217
      6 C6          0.0199   -2.0831    1.1740 C.ar      1 <0>        -0.1589
      7 C7          0.0001   -0.6844    1.1850 C.ar      1 <0>         0.1395
      8 F1          0.0031   -0.0159    2.3591 F         1 <0>        -0.1229
      9 C8          0.0437   -2.8349    2.4442 C.2       1 <0>         0.6059
     10 O1          1.1062   -3.1260    2.9585 O.2       1 <0>        -0.5102
     11 N1         -1.1125   -3.1987    3.0336 N.am      1 <0>        -0.6082
     12 C9         -2.4931   -2.9434    2.5599 C.3       1 <0>         0.1152
     13 C10        -3.2635   -4.2432    2.8832 C.3       1 <0>        -0.1121
     14 H1         -4.2781   -4.0123    3.2076 H         1 <0>         0.1179
     15 C11        -2.4703   -4.8947    4.0285 C.3       1 <0>        -0.0728
     16 C12        -1.2900   -3.9504    4.2992 C.3       1 <0>         0.1077
     17 C13        -3.3445   -5.0196    5.2726 C.3       1 <0>        -0.1330
     18 C14        -2.5527   -5.7227    6.3787 C.3       1 <0>        -0.0105
     19 N2         -2.1343   -7.0510    5.9151 N.4       1 <0>        -0.5042
     20 C15        -1.2193   -6.9180    4.7749 C.3       1 <0>        -0.0099
     21 C16        -1.9548   -6.2656    3.6009 C.3       1 <0>        -0.1467
     22 C17        -3.2919   -5.1495    1.6796 C.2       1 <0>         0.5100
     23 O2         -2.4226   -5.0673    0.8379 O.2       1 <0>        -0.4940
     24 N3         -4.2834   -6.0515    1.5385 N.am      1 <0>        -0.7303
     25 C18        -4.3111   -6.9326    0.3684 C.3       1 <0>         0.1379
     26 C19        -5.5303   -7.8532    0.4519 C.3       1 <0>        -0.1096
     27 S1         -5.5645   -8.9441   -0.9970 S.3       1 <0>        -0.2265
     28 C20        -7.0487   -9.9571   -0.7486 C.3       1 <0>        -0.0314
     29 C21        -8.2793   -9.0505   -0.6804 C.3       1 <0>        -0.1459
     30 C22        -7.1998  -10.9351   -1.9154 C.3       1 <0>        -0.1328
     31 C23        -6.9189  -10.7399    0.5595 C.3       1 <0>        -0.1435
     32 Cl1         0.0522   -4.5003   -0.0729 Cl        1 <0>        -0.0206
     33 H2          0.9650    1.9004   -0.0118 H         1 <0>         0.0829
     34 H3         -0.5878    1.8770   -0.8817 H         1 <0>         0.0811
     35 H4         -0.5644    1.8673    0.8981 H         1 <0>         0.0741
     36 H5         -0.0434   -0.1222   -2.1412 H         1 <0>         0.1509
     37 H6          0.0002   -2.5805   -2.1732 H         1 <0>         0.1493
     38 H7         -2.9289   -2.1001    3.0957 H         1 <0>         0.0906
     39 H8         -2.4979   -2.7560    1.4861 H         1 <0>         0.0985
     40 H9         -0.3916   -4.5225    4.5312 H         1 <0>         0.0897
     41 H10        -1.5299   -3.2694    5.1158 H         1 <0>         0.0874
     42 H11        -3.6395   -4.0264    5.6112 H         1 <0>         0.1225
     43 H12        -4.2342   -5.6028    5.0351 H         1 <0>         0.0973
     44 H13        -1.6717   -5.1307    6.6270 H         1 <0>         0.1334
     45 H14        -3.1802   -5.8280    7.2637 H         1 <0>         0.1403
     46 H15        -1.6659   -7.5357    6.6658 H         1 <0>         0.4344
     47 H16        -0.3701   -6.2976    5.0613 H         1 <0>         0.1347
     48 H17        -0.8639   -7.9046    4.4776 H         1 <0>         0.1385
     49 H18        -2.7946   -6.8936    3.3034 H         1 <0>         0.0963
     50 H19        -1.2699   -6.1510    2.7608 H         1 <0>         0.1232
     51 H20        -4.9786   -6.1173    2.2117 H         1 <0>         0.3972
     52 H21        -4.3717   -6.3307   -0.5383 H         1 <0>         0.0824
     53 H22        -3.4024   -7.5342    0.3450 H         1 <0>         0.0785
     54 H23        -5.4697   -8.4551    1.3586 H         1 <0>         0.0832
     55 H24        -6.4389   -7.2515    0.4752 H         1 <0>         0.0883
     56 H25        -8.3719   -8.4928   -1.6123 H         1 <0>         0.0711
     57 H26        -9.1712   -9.6592   -0.5312 H         1 <0>         0.0696
     58 H27        -8.1717   -8.3537    0.1509 H         1 <0>         0.0530
     59 H28        -6.3231  -11.5810   -1.9640 H         1 <0>         0.0670
     60 H29        -8.0917  -11.5438   -1.7662 H         1 <0>         0.0761
     61 H30        -7.2923  -10.3774   -2.8474 H         1 <0>         0.0684
     62 H31        -6.8112  -10.0431    1.3908 H         1 <0>         0.0512
     63 H32        -7.8107  -11.3486    0.7088 H         1 <0>         0.0696
     64 H33        -6.0422  -11.3858    0.5109 H         1 <0>         0.0687
     65 H34        -2.9468   -7.5786    5.6328 H         1 <0>         0.4270
@<TRIPOS>BOND
     1    1    2 1
     2    1   33 1
     3    1   34 1
     4    1   35 1
     5    2    7 ar
     6    2    3 ar
     7    3    4 ar
     8    3   36 1
     9    4    5 ar
    10    4   37 1
    11    5    6 ar
    12    5   32 1
    13    6    7 ar
    14    6    9 1
    15    7    8 1
    16    9   10 2
    17    9   11 am
    18   11   16 1
    19   11   12 1
    20   12   13 1
    21   12   38 1
    22   12   39 1
    23   13   14 1
    24   13   15 1
    25   13   22 1
    26   15   21 1
    27   15   16 1
    28   15   17 1
    29   16   40 1
    30   16   41 1
    31   17   18 1
    32   17   42 1
    33   17   43 1
    34   18   19 1
    35   18   44 1
    36   18   45 1
    37   19   20 1
    38   19   46 1
    39   19   65 1
    40   20   21 1
    41   20   47 1
    42   20   48 1
    43   21   49 1
    44   21   50 1
    45   22   23 2
    46   22   24 am
    47   24   25 1
    48   24   51 1
    49   25   26 1
    50   25   52 1
    51   25   53 1
    52   26   27 1
    53   26   54 1
    54   26   55 1
    55   27   28 1
    56   28   29 1
    57   28   30 1
    58   28   31 1
    59   29   56 1
    60   29   57 1
    61   29   58 1
    62   30   59 1
    63   30   60 1
    64   30   61 1
    65   31   62 1
    66   31   63 1
    67   31   64 1
@<TRIPOS>MOLECULE
ZINC09846785
   61    65     0     0     0
SMALL
USER_CHARGES
1-[[3-(2-thienyl)-7-(2-thienylmethylene)-3a,4,5,6-tetrahydro-3H-indazol-2-yl]carbonylmethyl]piperidine-4-carboxamide
@<TRIPOS>ATOM
      1 C1          1.2612   -0.4544    0.7729 C.2       1 <0>        -0.1672
      2 C2          0.0388    0.1680    0.6883 C.2       1 <0>        -0.1138
      3 C3          0.0100    1.5270    0.4131 C.2       1 <0>        -0.1700
      4 S1          1.7487    1.9092    0.2759 S.3       1 <0>         0.1034
      5 C4          2.3938    0.2741    0.5861 C.2       1 <0>        -0.1766
      6 C5         -1.1435    2.4141    0.2671 C.2       1 <0>         0.0243
      7 C6         -0.9575    3.7271   -0.0051 C.2       1 <0>        -0.0930
      8 C7          0.4352    4.2599   -0.1546 C.3       1 <0>        -0.0873
      9 C8          0.5134    5.7661   -0.2999 C.3       1 <0>        -0.1175
     10 C9         -0.6848    6.3683   -1.0312 C.3       1 <0>        -0.1077
     11 C10        -1.9385    6.0923   -0.1996 C.3       1 <0>        -0.1049
     12 H1         -1.8713    6.5348    0.7943 H         1 <0>         0.1301
     13 C11        -2.0783    4.5728   -0.1496 C.2       1 <0>         0.2012
     14 N1         -3.3276    4.2802   -0.2788 N.2       1 <0>        -0.2758
     15 N2         -4.1232    5.3746   -0.6385 N.am      1 <0>        -0.4531
     16 C12        -3.2209    6.5080   -0.9403 C.3       1 <0>         0.2069
     17 H2         -3.6140    7.4450   -0.5457 H         1 <0>         0.1308
     18 C13        -2.9796    6.6081   -2.4244 C.2       1 <0>        -0.1774
     19 C14        -2.7628    7.7114   -3.1815 C.2       1 <0>        -0.1203
     20 C15        -2.5594    7.5624   -4.5406 C.2       1 <0>        -0.1595
     21 C16        -2.5933    6.3184   -5.0778 C.2       1 <0>        -0.1548
     22 S2         -2.9129    5.3051   -3.6430 S.3       1 <0>         0.0483
     23 C17        -5.4698    5.3955   -0.6901 C.2       1 <0>         0.5405
     24 O1         -6.0487    6.4102   -1.0178 O.2       1 <0>        -0.5121
     25 C18        -6.2566    4.1585   -0.3409 C.3       1 <0>        -0.0123
     26 C19        -8.5006    3.2559   -0.2410 C.3       1 <0>         0.0026
     27 C20        -9.9823    3.6141   -0.3763 C.3       1 <0>        -0.1406
     28 C21       -10.3711    4.5873    0.7400 C.3       1 <0>        -0.1238
     29 C22        -9.4800    5.8297    0.6566 C.3       1 <0>        -0.1257
     30 C23        -8.0129    5.4073    0.7619 C.3       1 <0>        -0.0064
     31 C24       -11.8140    4.9905    0.5768 C.2       1 <0>         0.5200
     32 O2        -12.1026    6.1566    0.4100 O.2       1 <0>        -0.5268
     33 N3        -12.7836    4.0553    0.6161 N.am      1 <0>        -0.8499
     34 H3          1.3215   -1.5116    0.9853 H         1 <0>         0.1374
     35 H4         -0.8763   -0.3871    0.8328 H         1 <0>         0.1376
     36 H5          3.4224   -0.0535    0.6169 H         1 <0>         0.1879
     37 H6         -2.1437    2.0217    0.3765 H         1 <0>         0.1463
     38 H7          1.0143    3.9659    0.7208 H         1 <0>         0.0931
     39 H8          0.8872    3.8052   -1.0361 H         1 <0>         0.0909
     40 H9          0.5757    6.2102    0.6935 H         1 <0>         0.0708
     41 H10         1.4206    6.0174   -0.8495 H         1 <0>         0.0817
     42 H11        -0.5458    7.4437   -1.1416 H         1 <0>         0.0833
     43 H12        -0.7860    5.9070   -2.0136 H         1 <0>         0.0803
     44 H13        -2.7464    8.6920   -2.7291 H         1 <0>         0.1373
     45 H14        -2.3800    8.4246   -5.1657 H         1 <0>         0.1415
     46 H15        -2.4616    6.0181   -6.1068 H         1 <0>         0.1907
     47 H16        -6.0634    3.3836   -1.0827 H         1 <0>         0.1642
     48 H17        -5.9548    3.8020    0.6440 H         1 <0>         0.1637
     49 H18        -8.2171    2.5742   -1.0428 H         1 <0>         0.1364
     50 H19        -8.3298    2.7746    0.7220 H         1 <0>         0.1372
     51 H20       -10.5843    2.7090   -0.2960 H         1 <0>         0.1194
     52 H21       -10.1570    4.0827   -1.3448 H         1 <0>         0.0972
     53 H22       -10.2348    4.1057    1.7083 H         1 <0>         0.1178
     54 H23        -9.7232    6.5076    1.4748 H         1 <0>         0.1204
     55 H24        -9.6462    6.3334   -0.2957 H         1 <0>         0.0994
     56 H25        -7.8444    4.9160    1.7202 H         1 <0>         0.1313
     57 H26        -7.3753    6.2883    0.6884 H         1 <0>         0.1392
     58 H27       -12.5528    3.1226    0.7495 H         1 <0>         0.4029
     59 H28       -13.7123    4.3148    0.5110 H         1 <0>         0.4116
     60 N4         -7.6961    4.4909   -0.3542 N.4       1 <0>        -0.3866
     61 H29        -7.9227    4.9557   -1.2413 H         1 <0>         0.4356
@<TRIPOS>BOND
     1    1    5 2
     2    1    2 1
     3    1   34 1
     4    2    3 2
     5    2   35 1
     6    3    4 1
     7    3    6 1
     8    4    5 1
     9    5   36 1
    10    6    7 2
    11    6   37 1
    12    7   13 1
    13    7    8 1
    14    8    9 1
    15    8   38 1
    16    8   39 1
    17    9   10 1
    18    9   40 1
    19    9   41 1
    20   10   11 1
    21   10   42 1
    22   10   43 1
    23   11   12 1
    24   11   16 1
    25   11   13 1
    26   13   14 2
    27   14   15 1
    28   15   16 1
    29   15   23 am
    30   16   17 1
    31   16   18 1
    32   18   22 1
    33   18   19 2
    34   19   20 1
    35   19   44 1
    36   20   21 2
    37   20   45 1
    38   21   22 1
    39   21   46 1
    40   23   24 2
    41   23   25 1
    42   25   47 1
    43   25   48 1
    44   25   60 1
    45   26   27 1
    46   26   49 1
    47   26   50 1
    48   26   60 1
    49   27   28 1
    50   27   51 1
    51   27   52 1
    52   28   29 1
    53   28   31 1
    54   28   53 1
    55   29   30 1
    56   29   54 1
    57   29   55 1
    58   30   56 1
    59   30   57 1
    60   30   60 1
    61   31   32 2
    62   31   33 am
    63   33   58 1
    64   33   59 1
    65   60   61 1
@<TRIPOS>MOLECULE
ZINC34896537
   61    65     0     0     0
SMALL
USER_CHARGES

@<TRIPOS>ATOM
      1 C1         -0.0164    1.3553    0.0095 C.2       1 <0>        -0.1670
      2 C2          1.1724    2.0448    0.0018 C.2       1 <0>        -0.1131
      3 C3          2.3540    1.3188   -0.0133 C.2       1 <0>        -0.1702
      4 S1          1.7508   -0.3616   -0.0166 S.3       1 <0>         0.1026
      5 C4          0.0021   -0.0041    0.0020 C.2       1 <0>        -0.1766
      6 C5          3.7339    1.8033   -0.0243 C.2       1 <0>         0.0255
      7 C6          4.7608    0.9213   -0.0388 C.2       1 <0>        -0.0946
      8 C7          4.4711   -0.5489   -0.0496 C.3       1 <0>        -0.0870
      9 C8          5.6979   -1.4265    0.0941 C.3       1 <0>        -0.1173
     10 C9          6.9510   -0.8264   -0.5403 C.3       1 <0>        -0.1074
     11 C10         7.2793    0.4756    0.1922 C.3       1 <0>        -0.1064
     12 H1          7.4650    0.3082    1.2531 H         1 <0>         0.1297
     13 C11         6.0886    1.4003   -0.0493 C.2       1 <0>         0.2024
     14 N1          6.5405    2.5890   -0.2630 N.2       1 <0>        -0.2745
     15 N2          7.9297    2.6369   -0.4295 N.am      1 <0>        -0.4536
     16 C12         8.4347    1.2364   -0.4803 C.3       1 <0>         0.2085
     17 H2          9.3606    1.1182    0.0826 H         1 <0>         0.1322
     18 C13         8.6136    0.7939   -1.9098 C.2       1 <0>        -0.1770
     19 C14         9.5139   -0.0772   -2.4274 C.2       1 <0>        -0.1205
     20 C15         9.4924   -0.3356   -3.7851 C.2       1 <0>        -0.1597
     21 C16         8.5718    0.2897   -4.5588 C.2       1 <0>        -0.1551
     22 S2          7.6897    1.2752   -3.3596 S.3       1 <0>         0.0496
     23 C17         8.6825    3.7518   -0.5107 C.2       1 <0>         0.5438
     24 O1          9.8838    3.6634   -0.6562 O.2       1 <0>        -0.5143
     25 C18         8.0323    5.1083   -0.4207 C.3       1 <0>        -0.0164
     26 N3          9.0593    6.1523   -0.5356 N.4       1 <0>        -0.3713
     27 C19         9.9682    6.0710    0.6142 C.3       1 <0>        -0.0234
     28 C20        11.0870    7.1033    0.4587 C.3       1 <0>        -0.1376
     29 C21        10.4746    8.5051    0.3882 C.3       1 <0>        -0.1314
     30 C22         9.4729    8.5562   -0.7690 C.3       1 <0>        -0.1325
     31 H3          9.9952    8.3856   -1.7104 H         1 <0>         0.1238
     32 C23         8.4138    7.4702   -0.5680 C.3       1 <0>         0.0108
     33 C24         8.8086    9.9086   -0.8001 C.2       1 <0>         0.5298
     34 O2          7.6051    9.9960   -0.6776 O.2       1 <0>        -0.5321
     35 N4          9.5518   11.0209   -0.9642 N.am      1 <0>        -0.8418
     36 H4         -0.9557    1.8879    0.0258 H         1 <0>         0.1375
     37 H5          1.1862    3.1247    0.0072 H         1 <0>         0.1381
     38 H6         -0.8299   -0.6927    0.0066 H         1 <0>         0.1879
     39 H7          3.9337    2.8646   -0.0209 H         1 <0>         0.1468
     40 H8          3.7871   -0.7732    0.7689 H         1 <0>         0.0928
     41 H9          3.9757   -0.7974   -0.9882 H         1 <0>         0.0909
     42 H10         5.8877   -1.5906    1.1549 H         1 <0>         0.0708
     43 H11         5.4956   -2.3894   -0.3749 H         1 <0>         0.0817
     44 H12         7.7830   -1.5237   -0.4421 H         1 <0>         0.0832
     45 H13         6.7664   -0.6191   -1.5944 H         1 <0>         0.0802
     46 H14        10.2374   -0.5619   -1.7886 H         1 <0>         0.1373
     47 H15        10.1989   -1.0252   -4.2230 H         1 <0>         0.1414
     48 H16         8.4109    0.2096   -5.6238 H         1 <0>         0.1906
     49 H17         7.3096    5.2192   -1.2291 H         1 <0>         0.1665
     50 H18         7.5225    5.2040    0.5380 H         1 <0>         0.1637
     51 H19         9.4132    6.2726    1.5304 H         1 <0>         0.1278
     52 H20        10.4008    5.0718    0.6649 H         1 <0>         0.1485
     53 H21        11.7597    7.0426    1.3142 H         1 <0>         0.1187
     54 H22        11.6429    6.9024   -0.4572 H         1 <0>         0.0930
     55 H23         9.9618    8.7263    1.3242 H         1 <0>         0.0905
     56 H24        11.2628    9.2392    0.2207 H         1 <0>         0.1005
     57 H25         7.6989    7.5039   -1.3901 H         1 <0>         0.1419
     58 H26         7.8920    7.6420    0.3734 H         1 <0>         0.1413
     59 H27        10.5143   10.9510   -1.0622 H         1 <0>         0.4066
     60 H28         9.1242   11.8913   -0.9842 H         1 <0>         0.4153
     61 H29         9.5837    6.0147   -1.3866 H         1 <0>         0.4283
@<TRIPOS>BOND
     1    1    5 2
     2    1    2 1
     3    1   36 1
     4    2    3 2
     5    2   37 1
     6    3    4 1
     7    3    6 1
     8    4    5 1
     9    5   38 1
    10    6    7 2
    11    6   39 1
    12    7   13 1
    13    7    8 1
    14    8    9 1
    15    8   40 1
    16    8   41 1
    17    9   10 1
    18    9   42 1
    19    9   43 1
    20   10   11 1
    21   10   44 1
    22   10   45 1
    23   11   12 1
    24   11   16 1
    25   11   13 1
    26   13   14 2
    27   14   15 1
    28   15   16 1
    29   15   23 am
    30   16   17 1
    31   16   18 1
    32   18   22 1
    33   18   19 2
    34   19   20 1
    35   19   46 1
    36   20   21 2
    37   20   47 1
    38   21   22 1
    39   21   48 1
    40   23   24 2
    41   23   25 1
    42   25   26 1
    43   25   49 1
    44   25   50 1
    45   26   32 1
    46   26   27 1
    47   26   61 1
    48   27   28 1
    49   27   51 1
    50   27   52 1
    51   28   29 1
    52   28   53 1
    53   28   54 1
    54   29   30 1
    55   29   55 1
    56   29   56 1
    57   30   31 1
    58   30   32 1
    59   30   33 1
    60   32   57 1
    61   32   58 1
    62   33   34 2
    63   33   35 am
    64   35   59 1
    65   35   60 1
@<TRIPOS>MOLECULE
ZINC39672719
   78    82     0     0     0
SMALL
USER_CHARGES

@<TRIPOS>ATOM
      1 C1         -0.3236    1.0023   -0.4977 C.3       1 <0>        -0.1260
      2 C2         -0.2275   -0.4987   -0.4039 C.ar      1 <0>        -0.0484
      3 C3         -0.7493   -1.2868   -1.4143 C.ar      1 <0>        -0.1268
      4 C4         -0.6646   -2.6614   -1.3346 C.ar      1 <0>        -0.0529
      5 C5         -0.0510   -3.2569   -0.2314 C.ar      1 <0>        -0.1505
      6 C6          0.4733   -2.4561    0.7845 C.ar      1 <0>        -0.0919
      7 C7          0.3870   -1.0825    0.6897 C.ar      1 <0>        -0.1282
      8 C8          0.0428   -4.7295   -0.1391 C.2       1 <0>         0.5908
      9 O1         -0.0055   -5.4060   -1.1478 O.2       1 <0>        -0.5280
     10 N1          0.1820   -5.3218    1.0636 N.am      1 <0>        -0.6202
     11 C9          0.1431   -4.6834    2.4004 C.3       1 <0>         0.1020
     12 C10        -0.6284   -5.6848    3.2889 C.3       1 <0>        -0.1139
     13 H1         -1.6842   -5.4176    3.3333 H         1 <0>         0.1125
     14 C11        -0.4491   -7.0450    2.5941 C.3       1 <0>        -0.0715
     15 C12         0.4019   -6.7600    1.3481 C.3       1 <0>         0.1084
     16 C13        -1.8047   -7.6104    2.1814 C.3       1 <0>        -0.1339
     17 C14        -1.6051   -8.9885    1.5443 C.3       1 <0>        -0.0113
     18 N2         -0.9510   -9.8840    2.5060 N.4       1 <0>        -0.5042
     19 C15         0.3901   -9.3811    2.8269 C.3       1 <0>        -0.0081
     20 C16         0.2750   -8.0194    3.5180 C.3       1 <0>        -0.1468
     21 C17        -0.0382   -5.7192    4.6751 C.2       1 <0>         0.5177
     22 O2          1.1220   -5.4110    4.8480 O.2       1 <0>        -0.5245
     23 N3         -0.7996   -6.0925    5.7226 N.am      1 <0>        -0.7134
     24 C18        -0.2258   -6.1260    7.0702 C.3       1 <0>         0.1253
     25 C19        -1.3227   -6.4592    8.0834 C.3       1 <0>         0.1020
     26 C20        -0.7533   -6.3668    9.5005 C.3       1 <0>        -0.1471
     27 C21         0.4003   -7.3603    9.6524 C.3       1 <0>        -0.1204
     28 C22        -0.1126   -8.7796    9.4004 C.3       1 <0>        -0.1235
     29 C23        -0.6821   -8.8721    7.9834 C.3       1 <0>        -0.1194
     30 C24        -1.8356   -7.8785    7.8315 C.3       1 <0>        -0.1031
     31 N4         -2.4303   -5.5052    7.9376 N.3       1 <0>        -0.5246
     32 C25        -1.9416   -4.1195    7.9844 C.3       1 <0>         0.0101
     33 C26        -3.1168   -3.1621    7.7694 C.3       1 <0>         0.0651
     34 O3         -4.1192   -3.4164    8.7572 O.3       1 <0>        -0.3808
     35 C27        -4.6180   -4.7567    8.7395 C.3       1 <0>         0.0635
     36 C28        -3.4581   -5.7302    8.9644 C.3       1 <0>         0.0114
     37 H2          0.5549    1.3911   -1.0127 H         1 <0>         0.0797
     38 H3         -1.2208    1.2749   -1.0534 H         1 <0>         0.0732
     39 H4         -0.3744    1.4266    0.5050 H         1 <0>         0.0725
     40 H5         -1.2241   -0.8248   -2.2673 H         1 <0>         0.1338
     41 H6         -1.0726   -3.2755   -2.1238 H         1 <0>         0.1347
     42 H7          0.9493   -2.9106    1.6408 H         1 <0>         0.1344
     43 H8          0.7962   -0.4615    1.4729 H         1 <0>         0.1317
     44 H9          1.1539   -4.5377    2.7814 H         1 <0>         0.1024
     45 H10        -0.3865   -3.7320    2.3519 H         1 <0>         0.1016
     46 H11         0.0641   -7.3697    0.5101 H         1 <0>         0.0902
     47 H12         1.4547   -6.9497    1.5577 H         1 <0>         0.0844
     48 H13        -2.4424   -7.7048    3.0603 H         1 <0>         0.0964
     49 H14        -2.2741   -6.9408    1.4607 H         1 <0>         0.1182
     50 H15        -2.5736   -9.4023    1.2633 H         1 <0>         0.1399
     51 H16        -0.9807   -8.8909    0.6562 H         1 <0>         0.1345
     52 H17        -1.5024   -9.9297    3.3498 H         1 <0>         0.4271
     53 H18         0.8922  -10.0842    3.4913 H         1 <0>         0.1390
     54 H19         0.9672   -9.2744    1.9084 H         1 <0>         0.1334
     55 H20         1.2719   -7.6384    3.7395 H         1 <0>         0.1248
     56 H21        -0.2879   -8.1284    4.4450 H         1 <0>         0.0985
     57 H22        -1.7275   -6.3390    5.5843 H         1 <0>         0.4062
     58 H23         0.5532   -6.8871    7.1146 H         1 <0>         0.0823
     59 H24         0.2035   -5.1524    7.3066 H         1 <0>         0.0745
     60 H25        -0.3879   -5.3556    9.6799 H         1 <0>         0.0686
     61 H26        -1.5347   -6.6042   10.2223 H         1 <0>         0.0755
     62 H27         1.1817   -7.1230    8.9305 H         1 <0>         0.0650
     63 H28         0.8060   -7.2945   10.6619 H         1 <0>         0.0688
     64 H29         0.7092   -9.4875    9.5087 H         1 <0>         0.0662
     65 H30        -0.8941   -9.0170   10.1223 H         1 <0>         0.0652
     66 H31         0.0993   -8.6347    7.2616 H         1 <0>         0.0619
     67 H32        -1.0475   -9.8832    7.8039 H         1 <0>         0.0645
     68 H33        -2.6171   -8.1159    8.5533 H         1 <0>         0.0716
     69 H34        -2.2413   -7.9444    6.8220 H         1 <0>         0.0634
     70 H35        -1.4879   -3.9262    8.9565 H         1 <0>         0.0499
     71 H36        -1.2005   -3.9681    7.1996 H         1 <0>         0.0879
     72 H37        -2.7692   -2.1330    7.8601 H         1 <0>         0.0989
     73 H38        -3.5368   -3.3188    6.7759 H         1 <0>         0.0570
     74 H39        -5.3562   -4.8808    9.5319 H         1 <0>         0.0999
     75 H40        -5.0817   -4.9597    7.7742 H         1 <0>         0.0580
     76 H41        -3.8239   -6.7546    8.8948 H         1 <0>         0.0888
     77 H42        -3.0286   -5.5627    9.9521 H         1 <0>         0.0525
     78 H43        -0.8757  -10.8074    2.1063 H         1 <0>         0.4341
@<TRIPOS>BOND
     1    1    2 1
     2    1   37 1
     3    1   38 1
     4    1   39 1
     5    2    7 ar
     6    2    3 ar
     7    3    4 ar
     8    3   40 1
     9    4    5 ar
    10    4   41 1
    11    5    6 ar
    12    5    8 1
    13    6    7 ar
    14    6   42 1
    15    7   43 1
    16    8    9 2
    17    8   10 am
    18   10   15 1
    19   10   11 1
    20   11   12 1
    21   11   44 1
    22   11   45 1
    23   12   13 1
    24   12   14 1
    25   12   21 1
    26   14   20 1
    27   14   15 1
    28   14   16 1
    29   15   46 1
    30   15   47 1
    31   16   17 1
    32   16   48 1
    33   16   49 1
    34   17   18 1
    35   17   50 1
    36   17   51 1
    37   18   19 1
    38   18   52 1
    39   18   78 1
    40   19   20 1
    41   19   53 1
    42   19   54 1
    43   20   55 1
    44   20   56 1
    45   21   22 2
    46   21   23 am
    47   23   24 1
    48   23   57 1
    49   24   25 1
    50   24   58 1
    51   24   59 1
    52   25   30 1
    53   25   26 1
    54   25   31 1
    55   26   27 1
    56   26   60 1
    57   26   61 1
    58   27   28 1
    59   27   62 1
    60   27   63 1
    61   28   29 1
    62   28   64 1
    63   28   65 1
    64   29   30 1
    65   29   66 1
    66   29   67 1
    67   30   68 1
    68   30   69 1
    69   31   36 1
    70   31   32 1
    71   32   33 1
    72   32   70 1
    73   32   71 1
    74   33   34 1
    75   33   72 1
    76   33   73 1
    77   34   35 1
    78   35   36 1
    79   35   74 1
    80   35   75 1
    81   36   76 1
    82   36   77 1
@<TRIPOS>MOLECULE
ZINC39688770
   67    71     0     0     0
SMALL
USER_CHARGES

@<TRIPOS>ATOM
      1 C1          2.1500    1.3476    1.3178 C.3       1 <0>        -0.1642
      2 C2          1.1416    1.2051    0.1760 C.3       1 <0>         0.1441
      3 H1          0.3713    0.4877    0.4590 H         1 <0>         0.0960
      4 C3          0.4953    2.5629   -0.1060 C.3       1 <0>        -0.0877
      5 C4         -0.5842    2.3993   -1.1447 C.ar      1 <0>        -0.0989
      6 C5         -0.2755    2.5208   -2.4868 C.ar      1 <0>        -0.0885
      7 C6         -1.2645    2.3706   -3.4403 C.ar      1 <0>        -0.1516
      8 C7         -2.5650    2.0982   -3.0510 C.ar      1 <0>         0.1012
      9 C8         -2.8731    1.9768   -1.7065 C.ar      1 <0>        -0.1468
     10 C9         -1.8813    2.1222   -0.7551 C.ar      1 <0>        -0.0833
     11 F1         -3.5328    1.9516   -3.9822 F         1 <0>        -0.1361
     12 N1          1.8304    0.7327   -1.0276 N.am      1 <0>        -0.7231
     13 C10         2.0327   -0.5867   -1.2142 C.2       1 <0>         0.5233
     14 O1          1.6447   -1.3828   -0.3857 O.2       1 <0>        -0.5168
     15 C11         2.7412   -1.0727   -2.4523 C.3       1 <0>        -0.1140
     16 H2          2.4612   -0.4643   -3.3124 H         1 <0>         0.1102
     17 C12         2.4093   -2.5589   -2.7137 C.3       1 <0>         0.0894
     18 N2          3.6744   -3.1418   -3.2193 N.am      1 <0>        -0.6048
     19 C13         4.7296   -2.5006   -2.3988 C.3       1 <0>         0.1081
     20 C14         4.2647   -1.0386   -2.2457 C.3       1 <0>        -0.0740
     21 C15         4.9225   -0.1618   -3.3069 C.3       1 <0>        -0.1335
     22 C16         6.4302   -0.0979   -3.0465 C.3       1 <0>        -0.0115
     23 N3          6.6744    0.4526   -1.7078 N.4       1 <0>        -0.5038
     24 C17         6.1185   -0.4448   -0.6880 C.3       1 <0>        -0.0081
     25 C18         4.5976   -0.5236   -0.8488 C.3       1 <0>        -0.1480
     26 C19         3.8305   -4.0499   -4.2030 C.2       1 <0>         0.5991
     27 O2          4.9338   -4.4955   -4.4488 O.2       1 <0>        -0.5213
     28 C20         2.6559   -4.5050   -4.9851 C.ar      1 <0>         0.1120
     29 C21         2.8160   -5.5321   -5.9269 C.ar      1 <0>        -0.1287
     30 C22         1.7425   -5.9606   -6.6531 C.ar      1 <0>        -0.0502
     31 C23         0.4967   -5.3462   -6.4259 C.ar      1 <0>        -0.0818
     32 C24        -0.6495   -5.7373   -7.1366 C.ar      1 <0>        -0.0994
     33 C25        -1.8379   -5.1208   -6.8900 C.ar      1 <0>        -0.0996
     34 C26        -1.9341   -4.1045   -5.9401 C.ar      1 <0>        -0.0932
     35 C27        -0.8456   -3.6993   -5.2327 C.ar      1 <0>        -0.0915
     36 C28         0.4020   -4.3122   -5.4584 C.ar      1 <0>         0.1221
     37 N4          1.4836   -3.9384   -4.7754 N.ar      1 <0>        -0.4412
     38 H3          2.6105    0.3803    1.5187 H         1 <0>         0.0622
     39 H4          2.9204    2.0649    1.0348 H         1 <0>         0.0551
     40 H5          1.6376    1.6991    2.2134 H         1 <0>         0.0736
     41 H6          0.0592    2.9555    0.8126 H         1 <0>         0.0957
     42 H7          1.2518    3.2559   -0.4742 H         1 <0>         0.0798
     43 H8          0.7390    2.7336   -2.7902 H         1 <0>         0.1239
     44 H9         -1.0231    2.4659   -4.4886 H         1 <0>         0.1353
     45 H10        -3.8872    1.7647   -1.4017 H         1 <0>         0.1385
     46 H11        -2.1205    2.0231    0.2934 H         1 <0>         0.1341
     47 H12         2.1407    1.3694   -1.6903 H         1 <0>         0.3957
     48 H13         2.1081   -3.0495   -1.7881 H         1 <0>         0.0940
     49 H14         1.6238   -2.6466   -3.4643 H         1 <0>         0.1414
     50 H15         4.7990   -2.9828   -1.4237 H         1 <0>         0.0853
     51 H16         5.6895   -2.5416   -2.9137 H         1 <0>         0.0885
     52 H17         4.7414   -0.5873   -4.2939 H         1 <0>         0.1177
     53 H18         4.5023    0.8429   -3.2603 H         1 <0>         0.0958
     54 H19         6.8523   -1.1009   -3.1092 H         1 <0>         0.1342
     55 H20         6.9009    0.5412   -3.7935 H         1 <0>         0.1395
     56 H21         7.6680    0.5506   -1.5621 H         1 <0>         0.4341
     57 H22         6.5481   -1.4395   -0.8064 H         1 <0>         0.1333
     58 H23         6.3593   -0.0611    0.3035 H         1 <0>         0.1390
     59 H24         4.1656    0.4680   -0.7140 H         1 <0>         0.1003
     60 H25         4.1876   -1.2042   -0.1027 H         1 <0>         0.1235
     61 H26         3.7861   -5.9825   -6.0774 H         1 <0>         0.1517
     62 H27         1.8464   -6.7499   -7.3829 H         1 <0>         0.1513
     63 H28        -0.5885   -6.5229   -7.8752 H         1 <0>         0.1377
     64 H29        -2.7183   -5.4227   -7.4378 H         1 <0>         0.1352
     65 H30        -2.8887   -3.6311   -5.7636 H         1 <0>         0.1362
     66 H31        -0.9378   -2.9108   -4.5004 H         1 <0>         0.1367
     67 H32         6.2353    1.3580   -1.6327 H         1 <0>         0.4270
@<TRIPOS>BOND
     1    1    2 1
     2    1   38 1
     3    1   39 1
     4    1   40 1
     5    2    3 1
     6    2    4 1
     7    2   12 1
     8    4    5 1
     9    4   41 1
    10    4   42 1
    11    5   10 ar
    12    5    6 ar
    13    6    7 ar
    14    6   43 1
    15    7    8 ar
    16    7   44 1
    17    8    9 ar
    18    8   11 1
    19    9   10 ar
    20    9   45 1
    21   10   46 1
    22   12   13 am
    23   12   47 1
    24   13   14 2
    25   13   15 1
    26   15   16 1
    27   15   20 1
    28   15   17 1
    29   17   18 1
    30   17   48 1
    31   17   49 1
    32   18   19 1
    33   18   26 am
    34   19   20 1
    35   19   50 1
    36   19   51 1
    37   20   25 1
    38   20   21 1
    39   21   22 1
    40   21   52 1
    41   21   53 1
    42   22   23 1
    43   22   54 1
    44   22   55 1
    45   23   24 1
    46   23   56 1
    47   23   67 1
    48   24   25 1
    49   24   57 1
    50   24   58 1
    51   25   59 1
    52   25   60 1
    53   26   27 2
    54   26   28 1
    55   28   37 ar
    56   28   29 ar
    57   29   30 ar
    58   29   61 1
    59   30   31 ar
    60   30   62 1
    61   31   36 ar
    62   31   32 ar
    63   32   33 ar
    64   32   63 1
    65   33   34 ar
    66   33   64 1
    67   34   35 ar
    68   34   65 1
    69   35   36 ar
    70   35   66 1
    71   36   37 ar
@<TRIPOS>MOLECULE
ZINC63182406
   56    60     0     0     0
SMALL
USER_CHARGES

@<TRIPOS>ATOM
      1 C1          3.8333   -4.6852    0.2003 C.ar      1 <0>        -0.1262
      2 C2          4.8776   -3.9648    0.7504 C.ar      1 <0>        -0.0928
      3 C3          4.7228   -2.6219    1.0381 C.ar      1 <0>        -0.1197
      4 C4          3.5162   -1.9900    0.7757 C.ar      1 <0>         0.0967
      5 C5          2.4657   -2.7181    0.2243 C.ar      1 <0>         0.0627
      6 C6          2.6267   -4.0641   -0.0635 C.ar      1 <0>        -0.1138
      7 N1          1.2389   -2.0837   -0.0361 N.am      1 <0>        -0.5474
      8 C7          1.2101   -0.6112   -0.0060 C.3       1 <0>         0.0738
      9 C8          2.0471   -0.1557    1.1979 C.3       1 <0>         0.0608
     10 H1          1.6034   -0.5384    2.1170 H         1 <0>         0.1075
     11 O1          3.3742   -0.6680    1.0571 O.3       1 <0>        -0.2787
     12 C9          2.0864    1.3501    1.2449 C.2       1 <0>         0.5251
     13 O2          3.1371    1.9345    1.0857 O.2       1 <0>        -0.4937
     14 N2          0.9539    2.0472    1.4637 N.am      1 <0>        -0.8475
     15 C10         0.1276   -2.7976   -0.3045 C.2       1 <0>         0.5209
     16 O3          0.1908   -4.0051   -0.3994 O.2       1 <0>        -0.5011
     17 C11        -1.1933   -2.0955   -0.4866 C.3       1 <0>        -0.1605
     18 C12        -2.3039   -3.1342   -0.6556 C.3       1 <0>        -0.0790
     19 C13        -3.6033   -2.4350   -0.9620 C.2       1 <0>         0.0970
     20 C14        -3.8217   -1.1007   -0.9897 C.ar      1 <0>        -0.1654
     21 C15        -2.9482    0.0546   -0.7515 C.ar      1 <0>        -0.0807
     22 C16        -3.4660    1.3015   -0.8543 C.ar      1 <0>         0.0856
     23 C17        -4.8144    1.5151   -1.1822 C.ar      1 <0>         0.0191
     24 C18        -5.6767    0.5035   -1.4144 C.ar      1 <0>        -0.1696
     25 C19        -5.2392   -0.8477   -1.3339 C.ar      1 <0>         0.3340
     26 N3         -5.8723   -1.9817   -1.5121 N.pl3     1 <0>        -0.5719
     27 C20        -4.9253   -3.0833   -1.3072 C.3       1 <0>         0.1530
     28 H2         -4.8280   -3.6727   -2.2190 H         1 <0>         0.1861
     29 C21        -5.3879   -3.9571   -0.1699 C.ar      1 <0>        -0.1451
     30 C22        -6.0076   -3.3906    0.9284 C.ar      1 <0>        -0.0713
     31 C23        -6.4328   -4.1909    1.9718 C.ar      1 <0>        -0.1459
     32 C24        -6.2378   -5.5606    1.9169 C.ar      1 <0>         0.1398
     33 C25        -5.6170   -6.1268    0.8164 C.ar      1 <0>        -0.1431
     34 C26        -5.1975   -5.3251   -0.2282 C.ar      1 <0>        -0.0525
     35 F1         -6.6526   -6.3439    2.9365 F         1 <0>        -0.1206
     36 F2         -2.6650    2.3671   -0.6352 F         1 <0>        -0.1103
     37 H3          3.9619   -5.7330   -0.0277 H         1 <0>         0.1332
     38 H4          5.8182   -4.4537    0.9564 H         1 <0>         0.1366
     39 H5          5.5420   -2.0641    1.4673 H         1 <0>         0.1414
     40 H6          1.8113   -4.6266   -0.4937 H         1 <0>         0.1717
     41 H7          1.6388   -0.2140   -0.9261 H         1 <0>         0.1059
     42 H8          0.1830   -0.2635    0.1048 H         1 <0>         0.1029
     43 H9          0.1136    1.5798    1.5909 H         1 <0>         0.3980
     44 H10         0.9792    3.0164    1.4939 H         1 <0>         0.4162
     45 H11        -1.4015   -1.4801    0.3887 H         1 <0>         0.1110
     46 H12        -1.1494   -1.4630   -1.3733 H         1 <0>         0.1150
     47 H13        -2.0509   -3.8065   -1.4755 H         1 <0>         0.1403
     48 H14        -2.4083   -3.7076    0.2654 H         1 <0>         0.1387
     49 H15        -1.9081   -0.0878   -0.4977 H         1 <0>         0.1716
     50 H16        -5.1762    2.5304   -1.2511 H         1 <0>         0.1761
     51 H17        -6.7050    0.7210   -1.6627 H         1 <0>         0.1745
     52 H18        -6.1593   -2.3221    0.9712 H         1 <0>         0.1290
     53 H19        -6.9165   -3.7481    2.8299 H         1 <0>         0.1498
     54 H20        -5.4641   -7.1951    0.7726 H         1 <0>         0.1545
     55 H21        -4.7172   -5.7670   -1.0887 H         1 <0>         0.1494
     56 H22        -6.8093   -2.0764   -1.7443 H         1 <0>         0.4590
@<TRIPOS>BOND
     1    1    6 ar
     2    1    2 ar
     3    1   37 1
     4    2    3 ar
     5    2   38 1
     6    3    4 ar
     7    3   39 1
     8    4   11 1
     9    4    5 ar
    10    5    6 ar
    11    5    7 1
    12    6   40 1
    13    7    8 1
    14    7   15 am
    15    8    9 1
    16    8   41 1
    17    8   42 1
    18    9   10 1
    19    9   11 1
    20    9   12 1
    21   12   13 2
    22   12   14 am
    23   14   43 1
    24   14   44 1
    25   15   16 2
    26   15   17 1
    27   17   18 1
    28   17   45 1
    29   17   46 1
    30   18   19 1
    31   18   47 1
    32   18   48 1
    33   19   27 1
    34   19   20 2
    35   20   25 ar
    36   20   21 ar
    37   21   22 ar
    38   21   49 1
    39   22   23 ar
    40   22   36 1
    41   23   24 ar
    42   23   50 1
    43   24   25 ar
    44   24   51 1
    45   25   26 2
    46   26   27 1
    47   26   56 1
    48   27   28 1
    49   27   29 1
    50   29   34 ar
    51   29   30 ar
    52   30   31 ar
    53   30   52 1
    54   31   32 ar
    55   31   53 1
    56   32   33 ar
    57   32   35 1
    58   33   34 ar
    59   33   54 1
    60   34   55 1
@<TRIPOS>MOLECULE
ZINC10001329
   61    64     0     0     0
SMALL
USER_CHARGES
N-[1-[5-[(4-chloro-2-methyl-phenyl)carbamoylmethylsulfanyl]-4-methyl-1,2,4-triazol-3-yl]-2-methyl-propyl]benzo[1,3]dioxole-5-carboxamide
@<TRIPOS>ATOM
      1 C1          0.9989    3.3054   -1.2317 C.3       1 <0>        -0.1180
      2 C2          1.0988    1.9497   -0.5812 C.ar      1 <0>        -0.0941
      3 C3          2.3006    1.2687   -0.5835 C.ar      1 <0>        -0.0940
      4 C4          2.3928    0.0236    0.0127 C.ar      1 <0>        -0.0415
      5 C5          1.2819   -0.5426    0.6136 C.ar      1 <0>        -0.0971
      6 C6          0.0781    0.1340    0.6187 C.ar      1 <0>        -0.1028
      7 C7         -0.0172    1.3838    0.0205 C.ar      1 <0>         0.1439
      8 N1         -1.2377    2.0692    0.0192 N.am      1 <0>        -0.6625
      9 C8         -2.3946    1.3851   -0.0808 C.2       1 <0>         0.5357
     10 O1         -2.3833    0.1723   -0.0876 O.2       1 <0>        -0.5015
     11 C9         -3.7022    2.1271   -0.1841 C.3       1 <0>        -0.1496
     12 S1         -5.0623    0.9389   -0.3041 S.3       1 <0>         0.0921
     13 C10        -6.4282    2.0470   -0.4098 C.2       1 <0>         0.1432
     14 N2         -6.3726    3.3585   -0.3911 N.2       1 <0>        -0.2905
     15 N3         -7.5572    3.8471   -0.4903 N.2       1 <0>        -0.2654
     16 C11        -8.4327    2.8852   -0.5692 C.2       1 <0>         0.1748
     17 N4         -7.7451    1.7040   -0.5208 N.pl3     1 <0>        -0.4530
     18 C12        -8.3053    0.3515   -0.5765 C.3       1 <0>         0.0632
     19 C13        -9.9262    3.0448   -0.6913 C.3       1 <0>         0.2452
     20 H1        -10.4124    2.0944   -0.4711 H         1 <0>         0.1080
     21 C14       -10.2780    3.4798   -2.1153 C.3       1 <0>        -0.0999
     22 C15       -11.7943    3.6418   -2.2393 C.3       1 <0>        -0.1397
     23 C16        -9.5956    4.8139   -2.4244 C.3       1 <0>        -0.1497
     24 N5        -10.3879    4.0609    0.2578 N.am      1 <0>        -0.7116
     25 C17       -11.6597    4.0384    0.7033 C.2       1 <0>         0.5716
     26 O2        -12.4238    3.1749    0.3176 O.2       1 <0>        -0.5234
     27 C18       -12.1249    5.0621    1.6596 C.ar      1 <0>        -0.1305
     28 C19       -11.2468    6.0517    2.1083 C.ar      1 <0>        -0.0702
     29 C20       -11.6842    7.0095    2.9966 C.ar      1 <0>        -0.1075
     30 C21       -12.9937    6.9889    3.4579 C.ar      1 <0>         0.0642
     31 C22       -13.8743    5.9999    3.0177 C.ar      1 <0>         0.0240
     32 C23       -13.4430    5.0405    2.1226 C.ar      1 <0>        -0.0389
     33 O3        -15.0865    6.1999    3.6134 O.3       1 <0>        -0.3036
     34 C24       -14.8261    7.0703    4.7304 C.3       1 <0>         0.2119
     35 O4        -13.6558    7.8052    4.3266 O.3       1 <0>        -0.3037
     36 Cl1         3.9045   -0.8299    0.0076 Cl        1 <0>        -0.0666
     37 H2          1.2288    4.0781   -0.4981 H         1 <0>         0.0773
     38 H3          1.7082    3.3655   -2.0571 H         1 <0>         0.0767
     39 H4         -0.0125    3.4531   -1.6102 H         1 <0>         0.0678
     40 H5          3.1690    1.7085   -1.0514 H         1 <0>         0.1389
     41 H6          1.3565   -1.5145    1.0786 H         1 <0>         0.1384
     42 H7         -0.7886   -0.3085    1.0871 H         1 <0>         0.1496
     43 H8         -1.2508    3.0365    0.0902 H         1 <0>         0.4169
     44 H9         -3.8388    2.7475    0.7016 H         1 <0>         0.1331
     45 H10        -3.6923    2.7589   -1.0723 H         1 <0>         0.1330
     46 H11        -8.5283    0.0087    0.4339 H         1 <0>         0.0920
     47 H12        -9.2213    0.3617   -1.1672 H         1 <0>         0.0999
     48 H13        -7.5831   -0.3222   -1.0376 H         1 <0>         0.0993
     49 H14        -9.9344    2.7238   -2.8215 H         1 <0>         0.0791
     50 H15       -12.2805    2.6914   -2.0191 H         1 <0>         0.0653
     51 H16       -12.1378    4.3978   -1.5331 H         1 <0>         0.0578
     52 H17       -12.0449    3.9517   -3.2538 H         1 <0>         0.0553
     53 H18        -8.5153    4.6984   -2.3361 H         1 <0>         0.0666
     54 H19        -9.8462    5.1238   -3.4389 H         1 <0>         0.0564
     55 H20        -9.9391    5.5698   -1.7182 H         1 <0>         0.0586
     56 H21        -9.7783    4.7498    0.5655 H         1 <0>         0.4099
     57 H22       -10.2262    6.0684    1.7553 H         1 <0>         0.1428
     58 H23       -11.0050    7.7763    3.3389 H         1 <0>         0.1453
     59 H24       -14.1235    4.2744    1.7814 H         1 <0>         0.1510
     60 H25       -14.6218    6.4888    5.6294 H         1 <0>         0.0894
     61 H26       -15.6656    7.7463    4.8929 H         1 <0>         0.1370
@<TRIPOS>BOND
     1    1    2 1
     2    1   37 1
     3    1   38 1
     4    1   39 1
     5    2    7 ar
     6    2    3 ar
     7    3    4 ar
     8    3   40 1
     9    4    5 ar
    10    4   36 1
    11    5    6 ar
    12    5   41 1
    13    6    7 ar
    14    6   42 1
    15    7    8 1
    16    8    9 am
    17    8   43 1
    18    9   10 2
    19    9   11 1
    20   11   12 1
    21   11   44 1
    22   11   45 1
    23   12   13 1
    24   13   17 1
    25   13   14 2
    26   14   15 1
    27   15   16 2
    28   16   17 1
    29   16   19 1
    30   17   18 1
    31   18   46 1
    32   18   47 1
    33   18   48 1
    34   19   20 1
    35   19   21 1
    36   19   24 1
    37   21   22 1
    38   21   23 1
    39   21   49 1
    40   22   50 1
    41   22   51 1
    42   22   52 1
    43   23   53 1
    44   23   54 1
    45   23   55 1
    46   24   25 am
    47   24   56 1
    48   25   26 2
    49   25   27 1
    50   27   32 ar
    51   27   28 ar
    52   28   29 ar
    53   28   57 1
    54   29   30 ar
    55   29   58 1
    56   30   35 1
    57   30   31 ar
    58   31   32 ar
    59   31   33 1
    60   32   59 1
    61   33   34 1
    62   34   35 1
    63   34   60 1
    64   34   61 1
@<TRIPOS>MOLECULE
ZINC15910444
   62    65     0     0     0
SMALL
USER_CHARGES
2-[[5-(cyclohexylamino)-1,3,4-thiadiazol-2-yl]sulfanyl]-N-(2-methyl-5-morpholinosulfonyl-phenyl)acetamide
@<TRIPOS>ATOM
      1 C1          2.3219    1.3248    1.2335 C.3       1 <0>        -0.1270
      2 C2          1.0946    1.9146    0.5877 C.ar      1 <0>        -0.0562
      3 C3         -0.0918    1.2071    0.5827 C.ar      1 <0>        -0.1175
      4 C4         -1.2167    1.7451   -0.0146 C.ar      1 <0>        -0.0331
      5 C5         -1.1609    2.9971   -0.5995 C.ar      1 <0>        -0.6633
      6 C6          0.0221    3.7094   -0.5980 C.ar      1 <0>        -0.0280
      7 C7          1.1553    3.1696   -0.0034 C.ar      1 <0>         0.1271
      8 N1          2.3557    3.8886   -0.0005 N.am      1 <0>        -0.6620
      9 C8          2.3362    5.2329   -0.0953 C.2       1 <0>         0.5332
     10 O1          1.2786    5.8265   -0.0821 O.2       1 <0>        -0.4907
     11 C9          3.6285    5.9984   -0.2175 C.3       1 <0>        -0.1612
     12 S1          3.2717    7.7737   -0.3253 S.3       1 <0>         0.1308
     13 C10         4.8618    8.5206   -0.4619 C.2       1 <0>         0.0205
     14 N2          6.0530    7.9539   -0.4780 N.2       1 <0>        -0.2760
     15 N3          7.1800    8.7335   -0.5985 N.2       1 <0>        -0.3726
     16 C11         7.0652   10.0442   -0.6859 C.2       1 <0>         0.3561
     17 S2          5.2923   10.2481   -0.6075 S.3       1 <0>        -0.0008
     18 N4          8.0583   11.0092   -0.8063 N.pl3     1 <0>        -0.6660
     19 C12         9.4669   10.6091   -0.8517 C.3       1 <0>         0.1581
     20 C13         9.9983   10.4507    0.5743 C.3       1 <0>        -0.1318
     21 C14        11.4693   10.0328    0.5269 C.3       1 <0>        -0.1168
     22 C15        12.2807   11.1047   -0.2036 C.3       1 <0>        -0.1239
     23 C16        11.7493   11.2631   -1.6296 C.3       1 <0>        -0.1151
     24 C17        10.2783   11.6810   -1.5822 C.3       1 <0>        -0.1273
     25 S3         -2.5989    3.6808   -1.3541 S.o2      1 <0>         2.6892
     26 O2         -3.7165    3.0509   -0.7431 O.2       1 <0>        -0.9499
     27 O3         -2.4255    5.0912   -1.3547 O.2       1 <0>        -0.9423
     28 N5         -2.5943    3.2027   -2.9395 N.pl3     1 <0>        -1.0010
     29 C18        -1.9436    4.0205   -3.9755 C.3       1 <0>         0.0848
     30 C19        -1.0074    3.1103   -4.7866 C.3       1 <0>         0.0474
     31 O4         -1.7412    1.9721   -5.2449 O.3       1 <0>        -0.3745
     32 C20        -2.2511    1.1438   -4.1971 C.3       1 <0>         0.0469
     33 C21        -3.2461    1.9505   -3.3550 C.3       1 <0>         0.0850
     34 H1          2.8800    0.7492    0.4951 H         1 <0>         0.0823
     35 H2          2.9506    2.1273    1.6194 H         1 <0>         0.0697
     36 H3          2.0228    0.6715    2.0531 H         1 <0>         0.0816
     37 H4         -0.1395    0.2308    1.0420 H         1 <0>         0.1398
     38 H5         -2.1419    1.1880   -0.0210 H         1 <0>         0.1420
     39 H6          0.0662    4.6852   -1.0588 H         1 <0>         0.1628
     40 H7          3.2019    3.4196    0.0698 H         1 <0>         0.4176
     41 H8          4.2495    5.8051    0.6572 H         1 <0>         0.1324
     42 H9          4.1566    5.6788   -1.1159 H         1 <0>         0.1338
     43 H10         7.8187   11.9476   -0.8603 H         1 <0>         0.4198
     44 H11         9.5583    9.6606   -1.3810 H         1 <0>         0.0927
     45 H12         9.9068   11.3992    1.1035 H         1 <0>         0.0662
     46 H13         9.4202    9.6870    1.0947 H         1 <0>         0.0686
     47 H14        11.5607    9.0843   -0.0024 H         1 <0>         0.0661
     48 H15        11.8479    9.9200    1.5428 H         1 <0>         0.0673
     49 H16        13.3287   10.8070   -0.2374 H         1 <0>         0.0665
     50 H17        12.1893   12.0532    0.3257 H         1 <0>         0.0638
     51 H18        11.8407   10.3147   -2.1588 H         1 <0>         0.0671
     52 H19        12.3274   12.0268   -2.1500 H         1 <0>         0.0708
     53 H20         9.8997   11.7939   -2.5981 H         1 <0>         0.0722
     54 H21        10.1868   12.6295   -1.0529 H         1 <0>         0.0715
     55 H22        -2.6998    4.4519   -4.6313 H         1 <0>         0.0875
     56 H23        -1.3667    4.8171   -3.5057 H         1 <0>         0.1004
     57 H24        -0.1804    2.7811   -4.1575 H         1 <0>         0.0555
     58 H25        -0.6171    3.6606   -5.6426 H         1 <0>         0.1083
     59 H26        -1.4286    0.8075   -3.5659 H         1 <0>         0.0563
     60 H27        -2.7563    0.2800   -4.6292 H         1 <0>         0.1086
     61 H28        -3.5321    1.3757   -2.4741 H         1 <0>         0.1000
     62 H29        -4.1315    2.1771   -3.9489 H         1 <0>         0.0867
@<TRIPOS>BOND
     1    1    2 1
     2    1   34 1
     3    1   35 1
     4    1   36 1
     5    2    7 ar
     6    2    3 ar
     7    3    4 ar
     8    3   37 1
     9    4    5 ar
    10    4   38 1
    11    5    6 ar
    12    5   25 1
    13    6    7 ar
    14    6   39 1
    15    7    8 1
    16    8    9 am
    17    8   40 1
    18    9   10 2
    19    9   11 1
    20   11   12 1
    21   11   41 1
    22   11   42 1
    23   12   13 1
    24   13   17 1
    25   13   14 2
    26   14   15 1
    27   15   16 2
    28   16   17 1
    29   16   18 1
    30   18   19 1
    31   18   43 1
    32   19   24 1
    33   19   20 1
    34   19   44 1
    35   20   21 1
    36   20   45 1
    37   20   46 1
    38   21   22 1
    39   21   47 1
    40   21   48 1
    41   22   23 1
    42   22   49 1
    43   22   50 1
    44   23   24 1
    45   23   51 1
    46   23   52 1
    47   24   53 1
    48   24   54 1
    49   25   26 2
    50   25   27 2
    51   25   28 1
    52   28   33 1
    53   28   29 1
    54   29   30 1
    55   29   55 1
    56   29   56 1
    57   30   31 1
    58   30   57 1
    59   30   58 1
    60   31   32 1
    61   32   33 1
    62   32   59 1
    63   32   60 1
    64   33   61 1
    65   33   62 1
@<TRIPOS>MOLECULE
ZINC33703367
   68    73     0     0     0
SMALL
USER_CHARGES
(3aR,4S,6S,6aR)-6-(cyclohexylmethyl)-4-(1-naphthyl)-2-(3-nitrophenyl)-1,3-dioxo-3a,4,5,6a-tetrahydropyrrolo[3,4-c]pyrrole-6-carboxylic acid
@<TRIPOS>ATOM
      1 C1          4.7282    0.3369   -1.8093 C.ar      1 <0>        -0.1029
      2 C2          3.5223   -0.3559   -1.7167 C.ar      1 <0>        -0.0912
      3 C3          2.4564    0.1773   -1.0599 C.ar      1 <0>        -0.1033
      4 C4          2.5699    1.4454   -0.4644 C.ar      1 <0>        -0.0252
      5 C5          3.7948    2.1520   -0.5627 C.ar      1 <0>        -0.0438
      6 C6          4.8718    1.5710   -1.2539 C.ar      1 <0>        -0.1043
      7 C7          3.9102    3.4170    0.0376 C.ar      1 <0>        -0.0768
      8 C8          2.8458    3.9481    0.6994 C.ar      1 <0>        -0.1164
      9 C9          1.6401    3.2558    0.7915 C.ar      1 <0>        -0.1175
     10 C10         1.4916    2.0282    0.2224 C.ar      1 <0>        -0.1130
     11 C11         0.1795    1.2954    0.3337 C.3       1 <0>         0.1193
     12 H1          0.4103    0.2333    0.5030 H         1 <0>         0.1591
     13 C12        -0.6201    1.4831   -0.8875 C.3       1 <0>        -0.1951
     14 H2         -0.8480    0.4078   -0.9311 H         1 <0>         0.1722
     15 C13        -1.3400    2.8669   -0.6242 C.3       1 <0>        -0.1020
     16 H3         -0.9293    3.8871   -0.6001 H         1 <0>         0.1781
     17 C14        -2.2712    2.7798   -1.8024 C.2       1 <0>         0.5600
     18 O1         -3.4169    3.1716   -1.8610 O.2       1 <0>        -0.3905
     19 N1         -1.5567    2.1671   -2.7929 N.am      1 <0>        -0.5373
     20 C15        -0.4368    1.5279   -2.3217 C.2       1 <0>         0.5689
     21 O2          0.4971    1.0977   -2.9639 O.2       1 <0>        -0.4344
     22 C16        -1.9279    2.1880   -4.1447 C.ar      1 <0>         0.1392
     23 C17        -3.0783    2.8575   -4.5399 C.ar      1 <0>        -0.0886
     24 C18        -3.4411    2.8768   -5.8723 C.ar      1 <0>        -0.0889
     25 C19        -2.6600    2.2298   -6.8125 C.ar      1 <0>        -0.0658
     26 C20        -1.5140    1.5623   -6.4220 C.ar      1 <0>        -0.0214
     27 C21        -1.1429    1.5444   -5.0914 C.ar      1 <0>        -0.0880
     28 N2         -0.6808    0.8711   -7.4313 N.pl3     1 <0>         0.0271
     29 O3         -1.0049    0.8904   -8.6053 O.2       1 <0>        -0.1516
     30 O4          0.3290    0.2829   -7.0880 O.3       1 <0>        -0.1520
     31 C22        -1.8622    2.5157    0.7742 C.3       1 <0>         0.0393
     32 N3         -0.6619    1.8887    1.4249 N.4       1 <0>        -0.5282
     33 C23        -2.2885    3.7776    1.5271 C.3       1 <0>        -0.1168
     34 C24        -2.9171    3.3849    2.8656 C.3       1 <0>        -0.1050
     35 C25        -3.5429    4.6198    3.5169 C.3       1 <0>        -0.1116
     36 C26        -4.1715    4.2272    4.8555 C.3       1 <0>        -0.1228
     37 C27        -3.0925    3.6558    5.7775 C.3       1 <0>        -0.1195
     38 C28        -2.4666    2.4209    5.1262 C.3       1 <0>        -0.1190
     39 C29        -1.8381    2.8136    3.7877 C.3       1 <0>        -0.1132
     40 C30        -3.0038    1.5358    0.6880 C.2       1 <0>         0.4656
     41 O5         -3.7205    1.5272   -0.2847 O.co2     1 <0>        -0.5605
     42 O6         -3.2245    0.6725    1.6919 O.co2     1 <0>        -0.7102
     43 H4          5.5585   -0.1090   -2.3367 H         1 <0>         0.1297
     44 H5          3.4323   -1.3305   -2.1734 H         1 <0>         0.1294
     45 H6          1.5279   -0.3708   -0.9968 H         1 <0>         0.1204
     46 H7          5.8122    2.0961   -1.3338 H         1 <0>         0.1328
     47 H8          4.8387    3.9651   -0.0253 H         1 <0>         0.1359
     48 H9          2.9371    4.9209    1.1597 H         1 <0>         0.1338
     49 H10         0.8109    3.7000    1.3221 H         1 <0>         0.1163
     50 H11        -3.6890    3.3624   -3.8061 H         1 <0>         0.1688
     51 H12        -4.3358    3.3974   -6.1803 H         1 <0>         0.1592
     52 H13        -2.9461    2.2456   -7.8538 H         1 <0>         0.1598
     53 H14        -0.2452    1.0266   -4.7876 H         1 <0>         0.1778
     54 H15        -0.9711    1.0957    2.1217 H         1 <0>         0.4647
     55 H16        -1.4081    4.4119    1.7075 H         1 <0>         0.0790
     56 H17        -3.0234    4.3328    0.9257 H         1 <0>         0.1126
     57 H18        -3.6948    2.6255    2.6967 H         1 <0>         0.1140
     58 H19        -2.7652    5.3791    3.6857 H         1 <0>         0.0605
     59 H20        -4.3186    5.0306    2.8540 H         1 <0>         0.0661
     60 H21        -4.6214    5.1151    5.3237 H         1 <0>         0.0631
     61 H22        -4.9493    3.4679    4.6867 H         1 <0>         0.0667
     62 H23        -2.3148    4.4152    5.9464 H         1 <0>         0.0596
     63 H24        -3.5444    3.3735    6.7398 H         1 <0>         0.0634
     64 H25        -1.6908    2.0102    5.7891 H         1 <0>         0.0625
     65 H26        -3.2443    1.6615    4.9574 H         1 <0>         0.0748
     66 H27        -1.3881    1.9258    3.3194 H         1 <0>         0.0420
     67 H28        -1.0604    3.5730    3.9566 H         1 <0>         0.0618
     68 H29        -0.0776    2.6463    1.9676 H         1 <0>         0.4334
@<TRIPOS>BOND
     1    1    6 ar
     2    1    2 ar
     3    1   43 1
     4    2    3 ar
     5    2   44 1
     6    3    4 ar
     7    3   45 1
     8    4   10 ar
     9    4    5 ar
    10    5    6 ar
    11    5    7 ar
    12    6   46 1
    13    7    8 ar
    14    7   47 1
    15    8    9 ar
    16    8   48 1
    17    9   10 ar
    18    9   49 1
    19   10   11 1
    20   11   12 1
    21   11   32 1
    22   11   13 1
    23   13   14 1
    24   13   20 1
    25   13   15 1
    26   15   16 1
    27   15   17 1
    28   15   31 1
    29   17   18 2
    30   17   19 am
    31   19   20 am
    32   19   22 1
    33   20   21 2
    34   22   27 ar
    35   22   23 ar
    36   23   24 ar
    37   23   50 1
    38   24   25 ar
    39   24   51 1
    40   25   26 ar
    41   25   52 1
    42   26   27 ar
    43   26   28 1
    44   27   53 1
    45   28   29 2
    46   28   30 1
    47   31   32 1
    48   31   33 1
    49   31   40 1
    50   32   54 1
    51   32   68 1
    52   33   34 1
    53   33   55 1
    54   33   56 1
    55   34   39 1
    56   34   35 1
    57   34   57 1
    58   35   36 1
    59   35   58 1
    60   35   59 1
    61   36   37 1
    62   36   60 1
    63   36   61 1
    64   37   38 1
    65   37   62 1
    66   37   63 1
    67   38   39 1
    68   38   64 1
    69   38   65 1
    70   39   66 1
    71   39   67 1
    72   40   41 2
    73   40   42 1
@<TRIPOS>MOLECULE
ZINC08686736
   62    66     0     0     0
SMALL
USER_CHARGES

@<TRIPOS>ATOM
      1 C1          1.4059    2.9339    1.4707 C.3       1 <0>        -0.1159
      2 C2          1.3685    1.4833    1.0641 C.ar      1 <0>        -0.1331
      3 C3          1.5851    1.1271   -0.2498 C.ar      1 <0>        -0.0628
      4 C4          1.5532   -0.2053   -0.6371 C.ar      1 <0>        -0.1467
      5 C5          1.3059   -1.1896    0.2778 C.ar      1 <0>        -0.0511
      6 C6          1.0832   -0.8518    1.6164 C.ar      1 <0>        -0.1332
      7 C7          1.1209    0.4982    2.0142 C.ar      1 <0>         0.1860
      8 N1          0.9059    0.8255    3.3361 N.am      1 <0>        -0.6287
      9 C8          0.6661   -0.1271    4.2542 C.2       1 <0>         0.5475
     10 C9          0.6239   -1.4949    3.9087 C.2       1 <0>        -0.2331
     11 C10         0.8149   -1.8808    2.6228 C.2       1 <0>         0.0354
     12 C11         0.3518   -2.5293    4.9703 C.3       1 <0>         0.1741
     13 N2          1.6052   -2.8810    5.6421 N.pl3     1 <0>        -0.5445
     14 C12         2.0360   -2.1343    6.8267 C.3       1 <0>         0.1270
     15 C13         1.4817   -2.7920    8.0641 C.ar      1 <0>        -0.1061
     16 C14         0.2451   -2.4124    8.5521 C.ar      1 <0>        -0.0805
     17 C15        -0.2678   -3.0131    9.6865 C.ar      1 <0>        -0.0971
     18 C16         0.4574   -3.9977   10.3379 C.ar      1 <0>         0.0438
     19 C17         1.7031   -4.3801    9.8464 C.ar      1 <0>         0.0358
     20 C18         2.2083   -3.7777    8.7056 C.ar      1 <0>        -0.0885
     21 O1          2.2104   -5.3557   10.6551 O.3       1 <0>        -0.3065
     22 C19         1.4491   -5.2784   11.8748 C.3       1 <0>         0.2126
     23 O2          0.1842   -4.7337   11.4545 O.3       1 <0>        -0.3057
     24 C20         2.3621   -3.8915    5.1705 C.2       1 <0>         0.5658
     25 N3          3.5153   -4.2150    5.7886 N.pl3     1 <0>        -0.6247
     26 C21         4.2371   -5.3308    5.3751 C.ar      1 <0>         0.2009
     27 C22         3.5880   -6.5376    5.1492 C.ar      1 <0>        -0.0836
     28 C23         4.3057   -7.6427    4.7393 C.ar      1 <0>        -0.0693
     29 C24         5.6761   -7.5587    4.5495 C.ar      1 <0>        -0.1273
     30 C25         6.3375   -6.3703    4.7685 C.ar      1 <0>        -0.0554
     31 C26         5.6239   -5.2407    5.1788 C.ar      1 <0>        -0.1417
     32 C27         6.3239   -3.9647    5.4091 C.2       1 <0>         0.5142
     33 O3          5.6948   -2.9758    5.7298 O.2       1 <0>        -0.5160
     34 O4          7.6619   -3.8944    5.2640 O.3       1 <0>        -0.3440
     35 C28         8.2746   -2.6258    5.5031 C.3       1 <0>         0.0344
     36 S1          1.8588   -4.7641    3.7862 S.2       1 <0>        -0.6273
     37 O5          0.4810    0.1987    5.4140 O.2       1 <0>        -0.5454
     38 H1          2.4233    3.2064    1.7514 H         1 <0>         0.0749
     39 H2          1.0811    3.5539    0.6351 H         1 <0>         0.0784
     40 H3          0.7404    3.0906    2.3196 H         1 <0>         0.0620
     41 H4          1.7813    1.8929   -0.9856 H         1 <0>         0.1325
     42 H5          1.7252   -0.4664   -1.6708 H         1 <0>         0.1320
     43 H6          1.2820   -2.2240   -0.0317 H         1 <0>         0.1383
     44 H7          0.7838   -2.9252    2.3496 H         1 <0>         0.1684
     45 H8         -0.3504   -2.1254    5.6996 H         1 <0>         0.1039
     46 H9         -0.0755   -3.4197    4.5090 H         1 <0>         0.1264
     47 H10         3.1248   -2.1272    6.8757 H         1 <0>         0.0893
     48 H11         1.6684   -1.1100    6.7640 H         1 <0>         0.1292
     49 H12        -0.3213   -1.6445    8.0460 H         1 <0>         0.1460
     50 H13        -1.2340   -2.7146   10.0655 H         1 <0>         0.1416
     51 H14         3.1720   -4.0754    8.3196 H         1 <0>         0.1240
     52 H15         1.3147   -6.2704   12.3059 H         1 <0>         0.1351
     53 H16         1.9349   -4.6124   12.5880 H         1 <0>         0.0872
     54 H17         2.5204   -6.6114    5.2948 H         1 <0>         0.1480
     55 H18         3.7964   -8.5791    4.5656 H         1 <0>         0.1371
     56 H19         6.2283   -8.4296    4.2285 H         1 <0>         0.1359
     57 H20         7.4054   -6.3104    4.6194 H         1 <0>         0.1427
     58 H21         7.8660   -1.8889    4.8117 H         1 <0>         0.0619
     59 H22         8.0743   -2.3129    6.5278 H         1 <0>         0.0621
     60 H23         9.3510   -2.7080    5.3522 H         1 <0>         0.1063
     61 H24         3.8421   -3.6702    6.5216 H         1 <0>         0.4132
     62 H25         0.9284    1.7564    3.6078 H         1 <0>         0.4144
@<TRIPOS>BOND
     1    1    2 1
     2    1   38 1
     3    1   39 1
     4    1   40 1
     5    2    7 ar
     6    2    3 ar
     7    3    4 ar
     8    3   41 1
     9    4    5 ar
    10    4   42 1
    11    5    6 ar
    12    5   43 1
    13    6   11 1
    14    6    7 ar
    15    7    8 1
    16    8    9 am
    17    8   62 1
    18    9   10 1
    19    9   37 2
    20   10   11 2
    21   10   12 1
    22   11   44 1
    23   12   13 1
    24   12   45 1
    25   12   46 1
    26   13   14 1
    27   13   24 1
    28   14   15 1
    29   14   47 1
    30   14   48 1
    31   15   20 ar
    32   15   16 ar
    33   16   17 ar
    34   16   49 1
    35   17   18 ar
    36   17   50 1
    37   18   23 1
    38   18   19 ar
    39   19   20 ar
    40   19   21 1
    41   20   51 1
    42   21   22 1
    43   22   23 1
    44   22   52 1
    45   22   53 1
    46   24   25 1
    47   24   36 2
    48   25   26 1
    49   25   61 1
    50   26   31 ar
    51   26   27 ar
    52   27   28 ar
    53   27   54 1
    54   28   29 ar
    55   28   55 1
    56   29   30 ar
    57   29   56 1
    58   30   31 ar
    59   30   57 1
    60   31   32 1
    61   32   33 2
    62   32   34 1
    63   34   35 1
    64   35   58 1
    65   35   59 1
    66   35   60 1
@<TRIPOS>MOLECULE
ZINC33916239
   68    73     0     0     0
SMALL
USER_CHARGES

@<TRIPOS>ATOM
      1 C1         -0.4666    2.0797   -0.5785 C.3       1 <0>        -0.2019
      2 C2         -0.4087    0.5787   -0.4568 C.2       1 <0>         0.3944
      3 O1         -0.4235    0.0581    0.6386 O.2       1 <0>        -0.4534
      4 C3         -0.3344   -0.2539   -1.6648 C.ar      1 <0>        -0.1796
      5 C4         -0.3114    0.3451   -2.9303 C.ar      1 <0>        -0.0480
      6 C5         -0.2417   -0.4390   -4.0589 C.ar      1 <0>        -0.1549
      7 C6         -0.1946   -1.8248   -3.9442 C.ar      1 <0>         0.1544
      8 C7         -0.2172   -2.4246   -2.6890 C.ar      1 <0>        -0.1505
      9 C8         -0.2804   -1.6486   -1.5543 C.ar      1 <0>        -0.0338
     10 N1         -0.1249   -2.6166   -5.0930 N.am      1 <0>        -0.5381
     11 C9         -0.0929   -2.1066   -6.3674 C.2       1 <0>         0.5909
     12 O2          0.1009   -0.9570   -6.6994 O.2       1 <0>        -0.4245
     13 C10        -0.3411   -3.2399   -7.2236 C.3       1 <0>        -0.2073
     14 H1         -1.4006   -3.4347   -7.0573 H         1 <0>         0.1301
     15 C11        -0.1505   -3.6750   -8.6180 C.3       1 <0>         0.1885
     16 H2          0.8845   -3.5369   -8.9306 H         1 <0>         0.1812
     17 N2         -0.4978   -5.1361   -8.5423 N.4       1 <0>        -0.5063
     18 C12        -0.3085   -5.5779   -7.1284 C.3       1 <0>        -0.0010
     19 C13         0.3914   -4.3984   -6.4366 C.3       1 <0>        -0.1029
     20 H3          1.4761   -4.4003   -6.5446 H         1 <0>         0.1718
     21 C14        -0.0753   -3.9816   -5.0694 C.2       1 <0>         0.5486
     22 O3         -0.3525   -4.7079   -4.1394 O.2       1 <0>        -0.3975
     23 C15        -1.6623   -5.8764   -6.4809 C.3       1 <0>        -0.1241
     24 C16        -2.4386   -6.8642   -7.3542 C.3       1 <0>        -0.0851
     25 C17        -3.8643   -7.0077   -6.8180 C.3       1 <0>        -0.1128
     26 C18        -4.6406   -7.9955   -7.6913 C.3       1 <0>        -0.1175
     27 C19        -3.9451   -9.3580   -7.6619 C.3       1 <0>        -0.1233
     28 C20        -2.5193   -9.2144   -8.1981 C.3       1 <0>        -0.1164
     29 C21        -1.7431   -8.2267   -7.3248 C.3       1 <0>        -0.1408
     30 C22         0.5758   -6.7971   -7.0767 C.2       1 <0>         0.5160
     31 O4          1.0798   -7.2284   -8.0996 O.co2     1 <0>        -0.6574
     32 O5          0.7871   -7.3522   -6.0119 O.co2     1 <0>        -0.6039
     33 C23        -1.0907   -2.9451   -9.5424 C.2       1 <0>        -0.0485
     34 C24        -0.7553   -1.8966  -10.3063 C.2       1 <0>        -0.1099
     35 C25        -1.9717   -1.5143  -11.0334 C.ar      1 <0>        -0.1414
     36 C26        -2.2802   -0.5235  -11.9643 C.ar      1 <0>        -0.0570
     37 C27        -3.5500   -0.4344  -12.4637 C.ar      1 <0>        -0.1308
     38 C28        -4.5317   -1.3229  -12.0493 C.ar      1 <0>        -0.0742
     39 C29        -4.2453   -2.3090  -11.1297 C.ar      1 <0>        -0.1104
     40 C30        -2.9612   -2.4173  -10.6102 C.ar      1 <0>         0.0733
     41 O6         -2.3862   -3.2552   -9.7244 O.3       1 <0>        -0.1993
     42 H4          0.5456    2.4839   -0.5739 H         1 <0>         0.1001
     43 H5         -0.9615    2.3497   -1.5114 H         1 <0>         0.0865
     44 H6         -1.0260    2.4910    0.2618 H         1 <0>         0.0905
     45 H7         -0.3487    1.4207   -3.0203 H         1 <0>         0.1444
     46 H8         -0.2240    0.0221   -5.0354 H         1 <0>         0.1562
     47 H9         -0.1808   -3.5007   -2.6049 H         1 <0>         0.1576
     48 H10        -0.2934   -2.1149   -0.5802 H         1 <0>         0.1451
     49 H11        -1.4588   -5.2735   -8.8175 H         1 <0>         0.4244
     50 H12        -1.5050   -6.3102   -5.4934 H         1 <0>         0.1311
     51 H13        -2.2310   -4.9515   -6.3850 H         1 <0>         0.0671
     52 H14        -2.4713   -6.4950   -8.3792 H         1 <0>         0.0524
     53 H15        -3.8316   -7.3769   -5.7930 H         1 <0>         0.0723
     54 H16        -4.3598   -6.0371   -6.8389 H         1 <0>         0.0604
     55 H17        -5.6563   -8.0977   -7.3093 H         1 <0>         0.0642
     56 H18        -4.6733   -7.6263   -8.7163 H         1 <0>         0.0594
     57 H19        -3.9123   -9.7271   -6.6369 H         1 <0>         0.0638
     58 H20        -4.4981  -10.0617   -8.2840 H         1 <0>         0.0612
     59 H21        -2.0239  -10.1851   -8.1772 H         1 <0>         0.0662
     60 H22        -2.5521   -8.8453   -9.2231 H         1 <0>         0.0562
     61 H23        -0.7273   -8.1244   -7.7068 H         1 <0>         0.0997
     62 H24        -1.7103   -8.5958   -6.2998 H         1 <0>         0.0744
     63 H25         0.2151   -1.4272  -10.3736 H         1 <0>         0.1734
     64 H26        -1.5196    0.1709  -12.2894 H         1 <0>         0.1353
     65 H27        -3.7903    0.3327  -13.1849 H         1 <0>         0.1371
     66 H28        -5.5308   -1.2408  -12.4512 H         1 <0>         0.1425
     67 H29        -5.0170   -2.9953  -10.8136 H         1 <0>         0.1377
     68 H30         0.1110   -5.6639   -9.1496 H         1 <0>         0.4441
@<TRIPOS>BOND
     1    1    2 1
     2    1   42 1
     3    1   43 1
     4    1   44 1
     5    2    3 2
     6    2    4 1
     7    4    9 ar
     8    4    5 ar
     9    5    6 ar
    10    5   45 1
    11    6    7 ar
    12    6   46 1
    13    7    8 ar
    14    7   10 1
    15    8    9 ar
    16    8   47 1
    17    9   48 1
    18   10   21 am
    19   10   11 am
    20   11   12 2
    21   11   13 1
    22   13   14 1
    23   13   19 1
    24   13   15 1
    25   15   16 1
    26   15   17 1
    27   15   33 1
    28   17   18 1
    29   17   49 1
    30   17   68 1
    31   18   19 1
    32   18   23 1
    33   18   30 1
    34   19   20 1
    35   19   21 1
    36   21   22 2
    37   23   24 1
    38   23   50 1
    39   23   51 1
    40   24   29 1
    41   24   25 1
    42   24   52 1
    43   25   26 1
    44   25   53 1
    45   25   54 1
    46   26   27 1
    47   26   55 1
    48   26   56 1
    49   27   28 1
    50   27   57 1
    51   27   58 1
    52   28   29 1
    53   28   59 1
    54   28   60 1
    55   29   61 1
    56   29   62 1
    57   30   31 2
    58   30   32 1
    59   33   41 1
    60   33   34 2
    61   34   35 1
    62   34   63 1
    63   35   40 ar
    64   35   36 ar
    65   36   37 ar
    66   36   64 1
    67   37   38 ar
    68   37   65 1
    69   38   39 ar
    70   38   66 1
    71   39   40 ar
    72   39   67 1
    73   40   41 1
@<TRIPOS>MOLECULE
ZINC31988532
   65    68     0     0     0
SMALL
USER_CHARGES
(5R,7S)-3-acetamido-N-[(2R)-2-(diethylamino)-2-(3-thienyl)ethyl]adamantane-1-carboxamide
@<TRIPOS>ATOM
      1 C1         -1.0496   -1.8883    1.3831 C.3       1 <0>        -0.1912
      2 C2         -0.2875   -0.8373    2.1926 C.3       1 <0>        -0.0137
      3 N1         -0.5523    0.4962    1.6360 N.4       1 <0>        -0.3955
      4 C3         -0.0433    1.5485    2.5256 C.3       1 <0>        -0.0278
      5 C4         -0.9338    2.7874    2.4118 C.3       1 <0>        -0.2064
      6 C5          0.0161    0.6262    0.2877 C.3       1 <0>         0.0858
      7 H1         -0.3466   -0.2222   -0.3111 H         1 <0>         0.1489
      8 C6         -0.4241    1.9572   -0.3252 C.3       1 <0>         0.0969
      9 N2         -1.8840    2.0635   -0.2648 N.am      1 <0>        -0.7600
     10 C7         -2.4939    3.1985   -0.6601 C.2       1 <0>         0.5357
     11 O1         -1.8342    4.1318   -1.0659 O.2       1 <0>        -0.5117
     12 C8         -3.9956    3.3079   -0.5980 C.3       1 <0>        -0.0621
     13 C9         -4.6227    2.2252   -1.4787 C.3       1 <0>        -0.1014
     14 C10        -6.1474    2.3363   -1.4156 C.3       1 <0>        -0.0810
     15 H2         -6.5983    1.5580   -2.0488 H         1 <0>         0.0818
     16 C11        -6.6129    2.1507    0.0300 C.3       1 <0>        -0.1123
     17 C12        -5.9858    3.2334    0.9107 C.3       1 <0>        -0.0805
     18 H3         -6.3204    3.1001    1.9501 H         1 <0>         0.0809
     19 C13        -4.4612    3.1223    0.8476 C.3       1 <0>        -0.0997
     20 C14        -6.4179    4.6126    0.4088 C.3       1 <0>        -0.1286
     21 C15        -5.9524    4.7982   -1.0368 C.3       1 <0>         0.1894
     22 C16        -6.5795    3.7155   -1.9175 C.3       1 <0>        -0.1295
     23 C17        -4.4277    4.6871   -1.0999 C.3       1 <0>        -0.0967
     24 N3         -6.3661    6.1188   -1.5174 N.am      1 <0>        -0.7402
     25 C18        -7.6736    6.4441   -1.5521 C.2       1 <0>         0.5160
     26 O2         -8.5076    5.6436   -1.1854 O.2       1 <0>        -0.5425
     27 C19        -8.0992    7.8027   -2.0464 C.3       1 <0>        -0.1803
     28 C20         1.5202    0.5843    0.3704 C.2       1 <0>        -0.1682
     29 C21         2.2014   -0.6005    0.1634 C.2       1 <0>        -0.1659
     30 C22         3.5548   -0.6026    0.2395 C.2       1 <0>        -0.1501
     31 S1          3.9054    1.1044    0.6275 S.3       1 <0>         0.1356
     32 C23         2.2251    1.7067    0.6545 C.2       1 <0>        -0.1686
     33 H4         -0.8513   -2.8868    1.7999 H         1 <0>         0.1096
     34 H5         -0.7172   -1.8558    0.3350 H         1 <0>         0.0786
     35 H6         -2.1282   -1.6779    1.4324 H         1 <0>         0.0821
     36 H7         -0.6199   -0.8698    3.2407 H         1 <0>         0.1331
     37 H8          0.7911   -1.0477    2.1433 H         1 <0>         0.1308
     38 H9         -0.0505    1.1859    3.5641 H         1 <0>         0.1315
     39 H10         0.9853    1.8084    2.2351 H         1 <0>         0.1356
     40 H11        -0.5526    3.5754    3.0780 H         1 <0>         0.1055
     41 H12        -1.9624    2.5275    2.7023 H         1 <0>         0.0807
     42 H13        -0.9266    3.1500    1.3733 H         1 <0>         0.0947
     43 H14         0.0276    2.7873    0.2377 H         1 <0>         0.1037
     44 H15        -0.0961    2.0042   -1.3741 H         1 <0>         0.1114
     45 H16        -2.4823    1.2170    0.1032 H         1 <0>         0.4101
     46 H17        -4.2880    2.3586   -2.5180 H         1 <0>         0.0727
     47 H18        -4.3120    1.2336   -1.1179 H         1 <0>         0.0655
     48 H19        -7.7091    2.2305    0.0753 H         1 <0>         0.0740
     49 H20        -6.3023    1.1591    0.3908 H         1 <0>         0.0634
     50 H21        -4.1506    2.1306    1.2084 H         1 <0>         0.0606
     51 H22        -4.0104    3.9006    1.4808 H         1 <0>         0.0718
     52 H23        -7.5141    4.6924    0.4541 H         1 <0>         0.0923
     53 H24        -5.9671    5.3910    1.0420 H         1 <0>         0.0623
     54 H25        -6.2448    3.8489   -2.9568 H         1 <0>         0.0630
     55 H26        -7.6757    3.7953   -1.8722 H         1 <0>         0.0921
     56 H27        -3.9768    5.4655   -0.4668 H         1 <0>         0.0780
     57 H28        -4.0930    4.8205   -2.1392 H         1 <0>         0.0788
     58 H29        -5.6096    6.8449   -1.8499 H         1 <0>         0.4222
     59 H30        -9.1954    7.8825   -2.0011 H         1 <0>         0.0939
     60 H31        -7.7645    7.9361   -3.0857 H         1 <0>         0.0888
     61 H32        -7.6484    8.5810   -1.4132 H         1 <0>         0.0886
     62 H33         1.6636   -1.5101   -0.0597 H         1 <0>         0.1434
     63 H34         4.2422   -1.4247    0.1054 H         1 <0>         0.1986
     64 H35         1.8638    2.7062    0.8468 H         1 <0>         0.1967
     65 H36        -1.6425    0.6190    1.5565 H         1 <0>         0.4285
@<TRIPOS>BOND
     1    1    2 1
     2    1   33 1
     3    1   34 1
     4    1   35 1
     5    2    3 1
     6    2   36 1
     7    2   37 1
     8    3    4 1
     9    3    6 1
    10    3   65 1
    11    4    5 1
    12    4   38 1
    13    4   39 1
    14    5   40 1
    15    5   41 1
    16    5   42 1
    17    6    7 1
    18    6    8 1
    19    6   28 1
    20    8    9 1
    21    8   43 1
    22    8   44 1
    23    9   10 am
    24    9   45 1
    25   10   11 2
    26   10   12 1
    27   12   19 1
    28   12   23 1
    29   12   13 1
    30   13   14 1
    31   13   46 1
    32   13   47 1
    33   14   15 1
    34   14   22 1
    35   14   16 1
    36   16   17 1
    37   16   48 1
    38   16   49 1
    39   17   18 1
    40   17   19 1
    41   17   20 1
    42   19   50 1
    43   19   51 1
    44   20   21 1
    45   20   52 1
    46   20   53 1
    47   21   22 1
    48   21   23 1
    49   21   24 1
    50   22   54 1
    51   22   55 1
    52   23   56 1
    53   23   57 1
    54   24   25 am
    55   24   58 1
    56   25   26 2
    57   25   27 1
    58   27   59 1
    59   27   60 1
    60   27   61 1
    61   28   32 2
    62   28   29 1
    63   29   30 2
    64   29   62 1
    65   30   31 1
    66   30   63 1
    67   31   32 1
    68   32   64 1
@<TRIPOS>MOLECULE
ZINC39637657
   62    65     0     0     0
SMALL
USER_CHARGES

@<TRIPOS>ATOM
      1 C1         -0.7679    2.6716    3.5305 C.ar      1 <0>        -0.0858
      2 C2          0.4190    3.3809    3.5214 C.ar      1 <0>        -0.1262
      3 C3          1.0698    3.6258    2.3269 C.ar      1 <0>        -0.0631
      4 C4          0.5345    3.1623    1.1399 C.ar      1 <0>        -0.1487
      5 C5         -0.6537    2.4520    1.1477 C.ar      1 <0>         0.1063
      6 C6         -1.3047    2.2068    2.3451 C.ar      1 <0>        -0.1502
      7 F1         -1.1781    1.9988   -0.0120 F         1 <0>        -0.1344
      8 C7          2.3633    4.3991    2.3187 C.3       1 <0>        -0.0889
      9 C8          3.5379    3.4296    2.4650 C.3       1 <0>         0.1199
     10 N1          4.7954    4.1813    2.4570 N.am      1 <0>        -0.7289
     11 C9          5.9700    3.5309    2.5739 C.2       1 <0>         0.5190
     12 O1          5.9861    2.3234    2.6857 O.2       1 <0>        -0.5179
     13 C10         7.2635    4.3041    2.5657 C.3       1 <0>        -0.1140
     14 H1          7.1571    5.2140    1.9751 H         1 <0>         0.1126
     15 C11         8.4089    3.4306    2.0066 C.3       1 <0>         0.1087
     16 N2          9.5912    3.7971    2.8214 N.am      1 <0>        -0.6265
     17 C12         9.0573    3.9551    4.1955 C.3       1 <0>         0.1081
     18 C13         7.6924    4.6455    4.0026 C.3       1 <0>        -0.0722
     19 C14         6.6783    4.0963    5.0014 C.3       1 <0>        -0.1470
     20 C15         7.0953    4.4985    6.4189 C.3       1 <0>        -0.0078
     21 N3          7.1634    5.9617    6.5144 N.4       1 <0>        -0.5044
     22 C16         8.2066    6.4740    5.6177 C.3       1 <0>        -0.0114
     23 C17         7.8365    6.1554    4.1664 C.3       1 <0>        -0.1332
     24 C18        10.8642    3.9523    2.4068 C.2       1 <0>         0.5417
     25 O2         11.7280    4.2566    3.2019 O.2       1 <0>        -0.5170
     26 C19        11.2142    3.7476    0.9554 C.3       1 <0>        -0.0972
     27 C20        12.6900    3.9796    0.7571 C.ar      1 <0>        -0.0744
     28 C21        13.1561    5.2461    0.4573 C.ar      1 <0>        -0.0921
     29 C22        14.5095    5.4595    0.2753 C.ar      1 <0>        -0.1085
     30 C23        15.3978    4.4054    0.3931 C.ar      1 <0>        -0.0295
     31 C24        14.9307    3.1381    0.6931 C.ar      1 <0>        -0.1069
     32 C25        13.5776    2.9270    0.8805 C.ar      1 <0>        -0.0906
     33 Cl1        17.0977    4.6726    0.1640 Cl        1 <0>        -0.0624
     34 H2         -1.2733    2.4769    4.4649 H         1 <0>         0.1362
     35 H3          0.8376    3.7441    4.4484 H         1 <0>         0.1273
     36 H4          1.0429    3.3544    0.2066 H         1 <0>         0.1363
     37 H5         -2.2316    1.6526    2.3525 H         1 <0>         0.1394
     38 H6          2.4557    4.9426    1.3784 H         1 <0>         0.0848
     39 H7          2.3697    5.1054    3.1489 H         1 <0>         0.0818
     40 H8          3.4455    2.8861    3.4052 H         1 <0>         0.0752
     41 H9          3.5316    2.7233    1.6348 H         1 <0>         0.0772
     42 H10         4.7825    5.1471    2.3676 H         1 <0>         0.4011
     43 H11         8.1753    2.3731    2.1300 H         1 <0>         0.1017
     44 H12         8.5849    3.6618    0.9560 H         1 <0>         0.0950
     45 H13         8.9287    2.9813    4.6679 H         1 <0>         0.0843
     46 H14         9.7196    4.5834    4.7910 H         1 <0>         0.0888
     47 H15         5.6926    4.5066    4.7820 H         1 <0>         0.0967
     48 H16         6.6456    3.0094    4.9264 H         1 <0>         0.1261
     49 H17         6.3635    4.1216    7.1334 H         1 <0>         0.1394
     50 H18         8.0738    4.0741    6.6437 H         1 <0>         0.1334
     51 H19         6.2726    6.3563    6.2520 H         1 <0>         0.4273
     52 H20         8.2939    7.5534    5.7416 H         1 <0>         0.1399
     53 H21         9.1586    6.0025    5.8615 H         1 <0>         0.1341
     54 H22         8.6203    6.5203    3.5026 H         1 <0>         0.1179
     55 H23         6.8927    6.6402    3.9168 H         1 <0>         0.0963
     56 H24        10.9640    2.7282    0.6616 H         1 <0>         0.1096
     57 H25        10.6503    4.4511    0.3429 H         1 <0>         0.1074
     58 H26        12.4626    6.0688    0.3651 H         1 <0>         0.1282
     59 H27        14.8735    6.4489    0.0408 H         1 <0>         0.1357
     60 H28        15.6235    2.3148    0.7848 H         1 <0>         0.1366
     61 H29        13.2134    1.9388    1.1193 H         1 <0>         0.1302
     62 H30         7.3786    6.2258    7.4642 H         1 <0>         0.4347
@<TRIPOS>BOND
     1    1    6 ar
     2    1    2 ar
     3    1   34 1
     4    2    3 ar
     5    2   35 1
     6    3    4 ar
     7    3    8 1
     8    4    5 ar
     9    4   36 1
    10    5    6 ar
    11    5    7 1
    12    6   37 1
    13    8    9 1
    14    8   38 1
    15    8   39 1
    16    9   10 1
    17    9   40 1
    18    9   41 1
    19   10   11 am
    20   10   42 1
    21   11   12 2
    22   11   13 1
    23   13   14 1
    24   13   18 1
    25   13   15 1
    26   15   16 1
    27   15   43 1
    28   15   44 1
    29   16   17 1
    30   16   24 am
    31   17   18 1
    32   17   45 1
    33   17   46 1
    34   18   23 1
    35   18   19 1
    36   19   20 1
    37   19   47 1
    38   19   48 1
    39   20   21 1
    40   20   49 1
    41   20   50 1
    42   21   22 1
    43   21   51 1
    44   21   62 1
    45   22   23 1
    46   22   52 1
    47   22   53 1
    48   23   54 1
    49   23   55 1
    50   24   25 2
    51   24   26 1
    52   26   27 1
    53   26   56 1
    54   26   57 1
    55   27   32 ar
    56   27   28 ar
    57   28   29 ar
    58   28   58 1
    59   29   30 ar
    60   29   59 1
    61   30   31 ar
    62   30   33 1
    63   31   32 ar
    64   31   60 1
    65   32   61 1
@<TRIPOS>MOLECULE
ZINC39686891
   68    71     0     0     0
SMALL
USER_CHARGES

@<TRIPOS>ATOM
      1 C1         -1.8548   -0.1847    0.6769 C.3       1 <0>        -0.1484
      2 C2         -1.0479   -1.4779    0.8090 C.3       1 <0>        -0.0936
      3 C3         -0.3308   -1.7572   -0.4867 C.ar      1 <0>        -0.0460
      4 C4         -0.9507   -2.5096   -1.4685 C.ar      1 <0>        -0.1234
      5 C5         -0.2998   -2.7690   -2.6569 C.ar      1 <0>        -0.0523
      6 C6          0.9867   -2.2705   -2.8676 C.ar      1 <0>        -0.1415
      7 C7          1.6063   -1.5122   -1.8730 C.ar      1 <0>        -0.0969
      8 C8          0.9422   -1.2554   -0.6914 C.ar      1 <0>        -0.1260
      9 C9          1.6904   -2.5449   -4.1386 C.2       1 <0>         0.5959
     10 O1          1.0623   -2.9017   -5.1163 O.2       1 <0>        -0.5311
     11 N1          3.0282   -2.3996   -4.2133 N.am      1 <0>        -0.6139
     12 C10         3.9711   -2.0905   -3.1125 C.3       1 <0>         0.1022
     13 C11         5.2116   -2.9643   -3.4042 C.3       1 <0>        -0.1159
     14 H1          6.1241   -2.4246   -3.1508 H         1 <0>         0.1160
     15 C12         5.1530   -3.2366   -4.9166 C.3       1 <0>        -0.0724
     16 C13         3.8897   -2.5193   -5.4139 C.3       1 <0>         0.1077
     17 C14         5.0396   -4.7351   -5.1799 C.3       1 <0>        -0.1466
     18 C15         5.0405   -4.9846   -6.6907 C.3       1 <0>        -0.0095
     19 N2          6.2797   -4.4572   -7.2747 N.4       1 <0>        -0.5043
     20 C16         6.3366   -3.0011   -7.0983 C.3       1 <0>        -0.0101
     21 C17         6.3901   -2.6676   -5.6047 C.3       1 <0>        -0.1334
     22 C18         5.1361   -4.2567   -2.6328 C.2       1 <0>         0.5164
     23 O2          4.0596   -4.7713   -2.4155 O.2       1 <0>        -0.5125
     24 N3          6.2650   -4.8407   -2.1842 N.am      1 <0>        -0.7211
     25 C19         6.1860   -6.0347   -1.3390 C.3       1 <0>         0.1463
     26 H2          5.2833   -5.9895   -0.7298 H         1 <0>         0.0945
     27 C20         6.1433   -7.2830   -2.2225 C.3       1 <0>        -0.1625
     28 C21         7.4136   -6.0965   -0.4279 C.3       1 <0>        -0.0886
     29 C22         7.3944   -4.9259    0.5210 C.ar      1 <0>        -0.1209
     30 C23         8.1434   -3.7981    0.2428 C.ar      1 <0>        -0.0917
     31 C24         8.1260   -2.7242    1.1129 C.ar      1 <0>        -0.1274
     32 C25         7.3595   -2.7768    2.2624 C.ar      1 <0>        -0.0893
     33 C26         6.6095   -3.9031    2.5424 C.ar      1 <0>        -0.1482
     34 C27         6.6221   -4.9775    1.6688 C.ar      1 <0>         0.1033
     35 F1          5.8856   -6.0773    1.9392 F         1 <0>        -0.1350
     36 H3         -1.1819    0.6418    0.4485 H         1 <0>         0.0566
     37 H4         -2.5841   -0.2920   -0.1261 H         1 <0>         0.0578
     38 H5         -2.3735    0.0173    1.6141 H         1 <0>         0.0635
     39 H6         -0.3186   -1.3706    1.6121 H         1 <0>         0.0763
     40 H7         -1.7208   -2.3044    1.0374 H         1 <0>         0.0776
     41 H8         -1.9461   -2.8950   -1.3041 H         1 <0>         0.1324
     42 H9         -0.7846   -3.3567   -3.4224 H         1 <0>         0.1342
     43 H10         2.6017   -1.1236   -2.0299 H         1 <0>         0.1350
     44 H11         1.4187   -0.6651    0.0772 H         1 <0>         0.1291
     45 H12         4.2386   -1.0339   -3.1268 H         1 <0>         0.0913
     46 H13         3.5341   -2.3598   -2.1510 H         1 <0>         0.1103
     47 H14         3.3929   -3.1134   -6.1809 H         1 <0>         0.0890
     48 H15         4.1427   -1.5320   -5.8005 H         1 <0>         0.0847
     49 H16         5.8864   -5.2495   -4.7255 H         1 <0>         0.0945
     50 H17         4.1113   -5.1108   -4.7495 H         1 <0>         0.1257
     51 H18         4.9761   -6.0558   -6.8818 H         1 <0>         0.1381
     52 H19         4.1843   -4.4833   -7.1421 H         1 <0>         0.1346
     53 H20         7.0727   -4.8813   -6.8171 H         1 <0>         0.4271
     54 H21         7.2275   -2.6103   -7.5897 H         1 <0>         0.1400
     55 H22         5.4497   -2.5469   -7.5401 H         1 <0>         0.1330
     56 H23         6.4140   -1.5858   -5.4740 H         1 <0>         0.1217
     57 H24         7.2855   -3.1076   -5.1655 H         1 <0>         0.0972
     58 H25         7.1297   -4.4704   -2.4211 H         1 <0>         0.3965
     59 H26         7.0460   -7.3281   -2.8317 H         1 <0>         0.0565
     60 H27         6.0845   -8.1714   -1.5937 H         1 <0>         0.0731
     61 H28         5.2687   -7.2389   -2.8717 H         1 <0>         0.0613
     62 H29         7.3971   -7.0259    0.1414 H         1 <0>         0.0957
     63 H30         8.3185   -6.0579   -1.0343 H         1 <0>         0.0840
     64 H31         8.7428   -3.7560   -0.6547 H         1 <0>         0.1267
     65 H32         8.7119   -1.8435    0.8948 H         1 <0>         0.1305
     66 H33         7.3472   -1.9375    2.9419 H         1 <0>         0.1348
     67 H34         6.0111   -3.9441    3.4405 H         1 <0>         0.1376
     68 H35         6.3059   -4.6766   -8.2592 H         1 <0>         0.4340
@<TRIPOS>BOND
     1    1    2 1
     2    1   36 1
     3    1   37 1
     4    1   38 1
     5    2    3 1
     6    2   39 1
     7    2   40 1
     8    3    8 ar
     9    3    4 ar
    10    4    5 ar
    11    4   41 1
    12    5    6 ar
    13    5   42 1
    14    6    7 ar
    15    6    9 1
    16    7    8 ar
    17    7   43 1
    18    8   44 1
    19    9   10 2
    20    9   11 am
    21   11   16 1
    22   11   12 1
    23   12   13 1
    24   12   45 1
    25   12   46 1
    26   13   14 1
    27   13   15 1
    28   13   22 1
    29   15   21 1
    30   15   16 1
    31   15   17 1
    32   16   47 1
    33   16   48 1
    34   17   18 1
    35   17   49 1
    36   17   50 1
    37   18   19 1
    38   18   51 1
    39   18   52 1
    40   19   20 1
    41   19   53 1
    42   19   68 1
    43   20   21 1
    44   20   54 1
    45   20   55 1
    46   21   56 1
    47   21   57 1
    48   22   23 2
    49   22   24 am
    50   24   25 1
    51   24   58 1
    52   25   26 1
    53   25   27 1
    54   25   28 1
    55   27   59 1
    56   27   60 1
    57   27   61 1
    58   28   29 1
    59   28   62 1
    60   28   63 1
    61   29   34 ar
    62   29   30 ar
    63   30   31 ar
    64   30   64 1
    65   31   32 ar
    66   31   65 1
    67   32   33 ar
    68   32   66 1
    69   33   34 ar
    70   33   67 1
    71   34   35 1
@<TRIPOS>MOLECULE
ZINC43548207
   65    67     0     0     0
SMALL
USER_CHARGES

@<TRIPOS>ATOM
      1 C1         -0.6866    1.4882   -0.2394 C.3       1 <0>        -0.1717
      2 C2         -0.6357   -0.0383   -0.1493 C.3       1 <0>        -0.0131
      3 H1         -0.3930   -0.4531   -1.1276 H         1 <0>         0.1138
      4 C3         -1.9883   -0.5662    0.3055 C.2       1 <0>         0.0878
      5 C4         -2.1767   -0.9553    1.5912 C.2       1 <0>        -0.1774
      6 S1         -3.8717   -1.4699    1.5936 S.3       1 <0>         0.3355
      7 C5         -4.2007   -1.1519   -0.0283 C.cat     1 <0>         0.3075
      8 N1         -3.0560   -0.6880   -0.4800 N.pl3     1 <0>        -0.5434
      9 N2         -5.3886   -1.3355   -0.7186 N.pl3     1 <0>        -0.6351
     10 C6         -6.5632   -1.8709   -0.0258 C.3       1 <0>         0.1353
     11 C7         -7.7143   -1.9719   -0.9932 C.2       1 <0>        -0.2096
     12 C8         -8.3297   -3.1160   -1.1617 C.2       1 <0>        -0.1197
     13 C9         -1.1854   -0.9428    2.7027 C.3       1 <0>        -0.0497
     14 C10         0.0132   -0.0707    2.2859 C.3       1 <0>        -0.0429
     15 C11         0.4299   -0.4543    0.8595 C.3       1 <0>        -0.0662
     16 H2          1.3632    0.0530    0.6154 H         1 <0>         0.1062
     17 C12         0.6744   -1.9613    0.7951 C.3       1 <0>         0.1105
     18 H3         -0.2309   -2.4905    1.0927 H         1 <0>         0.0617
     19 C13         1.8164   -2.3239    1.7487 C.3       1 <0>        -0.1061
     20 H4          2.7245   -1.8060    1.4400 H         1 <0>         0.0895
     21 C14         1.4527   -1.9066    3.1740 C.3       1 <0>        -0.1278
     22 C15         1.1830   -0.3986    3.2263 C.3       1 <0>        -0.1133
     23 C16         2.0534   -3.8349    1.7073 C.3       1 <0>        -0.1117
     24 H5          2.2343   -4.1462    0.6784 H         1 <0>         0.0937
     25 C17         0.8202   -4.5596    2.2501 C.3       1 <0>        -0.1442
     26 C18         3.2515   -4.1788    2.5542 C.2       1 <0>         0.5193
     27 O1          3.0994   -4.5376    3.7027 O.2       1 <0>        -0.5291
     28 N3          4.4921   -4.0878    2.0353 N.am      1 <0>        -0.6120
     29 C19         4.6840   -3.5516    0.6855 C.3       1 <0>         0.0733
     30 C20         5.6486   -4.5251    2.8210 C.3       1 <0>         0.1392
     31 C21         5.9161   -5.9836    2.5523 C.2       1 <0>        -0.1769
     32 C22         7.1006   -6.3682    2.1458 C.2       1 <0>        -0.1719
     33 O2          1.0278   -2.3316   -0.5391 O.3       1 <0>        -0.5616
     34 C23        -0.3465    1.4138    2.3729 C.3       1 <0>        -0.1543
     35 H6          0.3222    1.8913   -0.1493 H         1 <0>         0.0861
     36 H7         -1.1107    1.7816   -1.1997 H         1 <0>         0.0598
     37 H8         -1.3074    1.8792    0.5667 H         1 <0>         0.0823
     38 H9         -5.4422   -1.1094   -1.6603 H         1 <0>         0.4297
     39 H10        -6.3324   -2.8603    0.3690 H         1 <0>         0.0976
     40 H11        -6.8352   -1.2067    0.7946 H         1 <0>         0.1027
     41 H12        -8.0318   -1.1011   -1.5475 H         1 <0>         0.1282
     42 H13        -8.0121   -3.9868   -0.6074 H         1 <0>         0.1081
     43 H14        -9.1546   -3.1884   -1.8550 H         1 <0>         0.1188
     44 H15        -1.6460   -0.5268    3.5987 H         1 <0>         0.1069
     45 H16        -0.8462   -1.9594    2.9015 H         1 <0>         0.1134
     46 H17         0.5580   -2.4424    3.4910 H         1 <0>         0.0771
     47 H18         2.2765   -2.1515    3.8444 H         1 <0>         0.0807
     48 H19         2.0736    0.1404    2.9032 H         1 <0>         0.0774
     49 H20         0.9261   -0.1063    4.2445 H         1 <0>         0.0806
     50 H21         0.5932   -4.1912    3.2505 H         1 <0>         0.0754
     51 H22        -0.0293   -4.3734    1.5929 H         1 <0>         0.0565
     52 H23         1.0179   -5.6307    2.2936 H         1 <0>         0.0652
     53 H24         4.9028   -2.4855    0.7458 H         1 <0>         0.0603
     54 H25         5.5157   -4.0667    0.2048 H         1 <0>         0.0739
     55 H26         3.7762   -3.7037    0.1017 H         1 <0>         0.0752
     56 H27         6.5224   -3.9375    2.5393 H         1 <0>         0.0836
     57 H28         5.4419   -4.3830    3.8818 H         1 <0>         0.0949
     58 H29         5.1313   -6.7117    2.6948 H         1 <0>         0.1085
     59 H30         7.8853   -5.6401    2.0032 H         1 <0>         0.0996
     60 H31         7.2922   -7.4135    1.9531 H         1 <0>         0.1021
     61 H32         1.1186   -3.2852   -0.6716 H         1 <0>         0.3817
     62 H33        -0.2429    1.7530    3.4036 H         1 <0>         0.0690
     63 H34         0.3230    1.9880    1.7324 H         1 <0>         0.0749
     64 H35        -1.3758    1.5581    2.0446 H         1 <0>         0.0626
     65 H36        -2.9880   -0.4269   -1.4117 H         1 <0>         0.4312
@<TRIPOS>BOND
     1    1    2 1
     2    1   35 1
     3    1   36 1
     4    1   37 1
     5    2    3 1
     6    2   15 1
     7    2    4 1
     8    4    8 1
     9    4    5 2
    10    5    6 1
    11    5   13 1
    12    6    7 1
    13    7    8 2
    14    7    9 1
    15    8   65 1
    16    9   10 1
    17    9   38 1
    18   10   11 1
    19   10   39 1
    20   10   40 1
    21   11   12 2
    22   11   41 1
    23   12   42 1
    24   12   43 1
    25   13   14 1
    26   13   44 1
    27   13   45 1
    28   14   22 1
    29   14   15 1
    30   14   34 1
    31   15   16 1
    32   15   17 1
    33   17   18 1
    34   17   19 1
    35   17   33 1
    36   19   20 1
    37   19   21 1
    38   19   23 1
    39   21   22 1
    40   21   46 1
    41   21   47 1
    42   22   48 1
    43   22   49 1
    44   23   24 1
    45   23   25 1
    46   23   26 1
    47   25   50 1
    48   25   51 1
    49   25   52 1
    50   26   27 2
    51   26   28 am
    52   28   29 1
    53   28   30 1
    54   29   53 1
    55   29   54 1
    56   29   55 1
    57   30   31 1
    58   30   56 1
    59   30   57 1
    60   31   32 2
    61   31   58 1
    62   32   59 1
    63   32   60 1
    64   33   61 1
    65   34   62 1
    66   34   63 1
    67   34   64 1
@<TRIPOS>MOLECULE
ZINC63122563
   55    59     0     0     0
SMALL
USER_CHARGES

@<TRIPOS>ATOM
      1 C1          0.4140    1.5305    1.0674 C.ar      1 <0>        -0.1055
      2 C2          1.6272    2.1713    0.8987 C.ar      1 <0>        -0.1198
      3 C3          2.7619    1.4373    0.6077 C.ar      1 <0>        -0.0960
      4 C4          2.6834    0.0626    0.4857 C.ar      1 <0>        -0.1043
      5 C5          1.4704   -0.5782    0.6552 C.ar      1 <0>        -0.0756
      6 C6          0.3354    0.1559    0.9449 C.ar      1 <0>        -0.1232
      7 C7          3.9202   -0.7374    0.1675 C.3       1 <0>         0.2300
      8 H1          4.8108   -0.2430    0.5555 H         1 <0>         0.1209
      9 N1          3.8087   -2.1097    0.6965 N.pl3     1 <0>        -0.6955
     10 C8          3.7547   -3.1350   -0.1785 C.2       1 <0>         0.2630
     11 C9          4.3443   -2.8524   -1.5554 C.3       1 <0>        -0.0515
     12 S1          4.0670   -1.0250   -1.6466 S.3       1 <0>        -0.2476
     13 C10         3.2161   -4.3292    0.1434 C.2       1 <0>        -0.3613
     14 C11         2.5571   -4.4965    1.3836 C.2       1 <0>         0.5754
     15 O1          2.3825   -3.5383    2.1145 O.2       1 <0>        -0.5666
     16 N2          2.1223   -5.7165    1.7564 N.am      1 <0>        -0.7319
     17 C12         1.4398   -5.8899    3.0411 C.3       1 <0>         0.1310
     18 C13         1.0528   -7.3594    3.2188 C.3       1 <0>         0.0321
     19 H2          1.9393   -7.9843    3.1098 H         1 <0>         0.1354
     20 C14         0.0373   -7.7415    2.1730 C.2       1 <0>        -0.1963
     21 C15         0.1173   -8.6963    1.2141 C.2       1 <0>        -0.1077
     22 C16        -0.9500   -8.8732    0.3537 C.2       1 <0>        -0.1650
     23 C17        -2.0450   -8.0868    0.4942 C.2       1 <0>        -0.1334
     24 S2         -1.5864   -7.0595    1.8804 S.3       1 <0>         0.0392
     25 C18         0.4617   -7.5609    4.5903 C.2       1 <0>         0.0717
     26 C19         0.9283   -8.3738    5.5655 C.ar      1 <0>        -0.1573
     27 C20         2.0808   -9.2798    5.6379 C.ar      1 <0>        -0.0135
     28 C21         2.2947   -9.9794    6.7755 C.ar      1 <0>        -0.1481
     29 C22         1.4451   -9.8615    7.8840 C.ar      1 <0>         0.0547
     30 C23         0.3665   -9.0500    7.8931 C.ar      1 <0>        -0.2081
     31 C24         0.0466   -8.2669    6.7498 C.ar      1 <0>         0.3295
     32 N3         -0.9271   -7.4208    6.5160 N.pl3     1 <0>        -0.5787
     33 C25        -0.7695   -6.8902    5.1572 C.3       1 <0>         0.0542
     34 H3         -0.4717    2.1035    1.2992 H         1 <0>         0.1250
     35 H4          1.6885    3.2453    0.9940 H         1 <0>         0.1280
     36 H5          3.7096    1.9380    0.4753 H         1 <0>         0.1257
     37 H6          1.4090   -1.6522    0.5596 H         1 <0>         0.1253
     38 H7         -0.6124   -0.3448    1.0769 H         1 <0>         0.1219
     39 H8          5.4070   -3.0924   -1.5891 H         1 <0>         0.1263
     40 H9          3.7962   -3.3780   -2.3374 H         1 <0>         0.1349
     41 H10         3.2880   -5.1574   -0.5460 H         1 <0>         0.1372
     42 H11         3.7753   -2.2714    1.6524 H         1 <0>         0.4266
     43 H12         2.2614   -6.4798    1.1742 H         1 <0>         0.4043
     44 H13         2.1057   -5.5891    3.8498 H         1 <0>         0.0828
     45 H14         0.5416   -5.2727    3.0615 H         1 <0>         0.0776
     46 H15         1.0018   -9.3093    1.1235 H         1 <0>         0.1410
     47 H16        -0.9118   -9.6266   -0.4192 H         1 <0>         0.1458
     48 H17        -2.9593   -8.0849   -0.0806 H         1 <0>         0.1948
     49 H18         2.7479   -9.3865    4.7953 H         1 <0>         0.1613
     50 H19         3.1422  -10.6466    6.8310 H         1 <0>         0.1592
     51 H20         1.6622  -10.4441    8.7671 H         1 <0>         0.1620
     52 H21        -0.2571   -8.9953    8.7732 H         1 <0>         0.1621
     53 H22        -0.6285   -5.8098    5.1876 H         1 <0>         0.1777
     54 H23        -1.6436   -7.1388    4.5554 H         1 <0>         0.1729
     55 H24        -1.6317   -7.1824    7.1386 H         1 <0>         0.4573
@<TRIPOS>BOND
     1    1    6 ar
     2    1    2 ar
     3    1   34 1
     4    2    3 ar
     5    2   35 1
     6    3    4 ar
     7    3   36 1
     8    4    5 ar
     9    4    7 1
    10    5    6 ar
    11    5   37 1
    12    6   38 1
    13    7    8 1
    14    7   12 1
    15    7    9 1
    16    9   10 1
    17    9   42 1
    18   10   13 2
    19   10   11 1
    20   11   12 1
    21   11   39 1
    22   11   40 1
    23   13   14 1
    24   13   41 1
    25   14   15 2
    26   14   16 am
    27   16   17 1
    28   16   43 1
    29   17   18 1
    30   17   44 1
    31   17   45 1
    32   18   19 1
    33   18   20 1
    34   18   25 1
    35   20   24 1
    36   20   21 2
    37   21   22 1
    38   21   46 1
    39   22   23 2
    40   22   47 1
    41   23   24 1
    42   23   48 1
    43   25   33 1
    44   25   26 2
    45   26   31 ar
    46   26   27 ar
    47   27   28 ar
    48   27   49 1
    49   28   29 ar
    50   28   50 1
    51   29   30 ar
    52   29   51 1
    53   30   31 ar
    54   30   52 1
    55   31   32 2
    56   32   33 1
    57   32   55 1
    58   33   53 1
    59   33   54 1
@<TRIPOS>MOLECULE
ZINC11096307
   73    75     0     0     0
SMALL
USER_CHARGES
N-(1,5-dimethyl-3-oxo-2-phenyl-pyrazol-4-yl)-2-[2-methyl-1-(4-tert-butylphenyl)-propyl]amino-propanamide
@<TRIPOS>ATOM
      1 C1         -6.0500    3.7602   -4.4702 C.3       1 <0>        -0.1052
      2 C2         -4.5890    3.4088   -4.5836 C.2       1 <0>         0.2086
      3 C3         -3.8571    2.7663   -3.6459 C.2       1 <0>        -0.1192
      4 C4         -2.4968    2.6386   -4.1700 C.2       1 <0>         0.5486
      5 O1         -1.5497    2.1176   -3.6091 O.2       1 <0>        -0.5177
      6 N1         -2.4934    3.2030   -5.3954 N.am      1 <0>        -0.3573
      7 N2         -3.7826    3.6807   -5.6570 N.pl3     1 <0>        -0.3813
      8 C5         -4.2030    4.3622   -6.8838 C.3       1 <0>         0.0888
      9 C6         -1.3938    3.2944   -6.2544 C.ar      1 <0>         0.1412
     10 C7         -1.5554    3.0796   -7.6171 C.ar      1 <0>        -0.1351
     11 C8         -0.4683    3.1757   -8.4634 C.ar      1 <0>        -0.0975
     12 C9          0.7822    3.4742   -7.9540 C.ar      1 <0>        -0.1143
     13 C10         0.9475    3.6834   -6.5971 C.ar      1 <0>        -0.0945
     14 C11        -0.1365    3.5944   -5.7461 C.ar      1 <0>        -0.1058
     15 N3         -4.3174    2.3084   -2.3953 N.am      1 <0>        -0.6028
     16 C12        -4.2193    1.0022   -2.0781 C.2       1 <0>         0.5038
     17 O2         -3.8209    0.2061   -2.9024 O.2       1 <0>        -0.4994
     18 C13        -4.6043    0.5306   -0.6996 C.3       1 <0>         0.0092
     19 H1         -5.6515    0.7688   -0.5134 H         1 <0>         0.1646
     20 C14        -3.7290    1.2307    0.3419 C.3       1 <0>        -0.1817
     21 C15        -5.5554   -1.6453   -1.1727 C.3       1 <0>         0.0869
     22 H2         -5.9046   -1.1294   -2.0671 H         1 <0>         0.1422
     23 C16        -5.1372   -3.0476   -1.5326 C.ar      1 <0>        -0.1376
     24 C17        -4.2882   -3.7512   -0.6989 C.ar      1 <0>        -0.1177
     25 C18        -3.9085   -5.0394   -1.0267 C.ar      1 <0>        -0.1106
     26 C19        -4.3697   -5.6202   -2.1932 C.ar      1 <0>        -0.0368
     27 C20        -5.2142   -4.9145   -3.0298 C.ar      1 <0>        -0.1051
     28 C21        -5.5981   -3.6283   -2.6994 C.ar      1 <0>        -0.0774
     29 C22        -3.9516   -7.0226   -2.5532 C.3       1 <0>        -0.0367
     30 C23        -3.2150   -7.0068   -3.8941 C.3       1 <0>        -0.1424
     31 C24        -3.0237   -7.5725   -1.4681 C.3       1 <0>        -0.1488
     32 C25        -5.1916   -7.9122   -2.6629 C.3       1 <0>        -0.1417
     33 C26        -6.6841   -1.6986   -0.1411 C.3       1 <0>        -0.1062
     34 C27        -7.9291   -2.3182   -0.7791 C.3       1 <0>        -0.1504
     35 C28        -6.2449   -2.5499    1.0519 C.3       1 <0>        -0.1732
     36 H3         -6.6524    2.9396   -4.8601 H         1 <0>         0.0977
     37 H4         -6.3025    3.9309   -3.4237 H         1 <0>         0.0951
     38 H5         -6.2520    4.6641   -5.0448 H         1 <0>         0.0887
     39 H6         -4.6289    3.6354   -7.5755 H         1 <0>         0.0820
     40 H7         -4.9522    5.1161   -6.6421 H         1 <0>         0.1025
     41 H8         -3.3407    4.8422   -7.3465 H         1 <0>         0.0951
     42 H9         -2.5309    2.8421   -8.0150 H         1 <0>         0.1267
     43 H10        -0.5941    3.0132   -9.5237 H         1 <0>         0.1353
     44 H11         1.6316    3.5443   -8.6174 H         1 <0>         0.1340
     45 H12         1.9253    3.9170   -6.2025 H         1 <0>         0.1367
     46 H13        -0.0068    3.7582   -4.6865 H         1 <0>         0.1329
     47 H14        -4.7050    2.9333   -1.7627 H         1 <0>         0.4119
     48 H15        -2.6783    1.0650    0.1040 H         1 <0>         0.0927
     49 H16        -3.9392    2.3002    0.3334 H         1 <0>         0.1132
     50 H17        -3.9460    0.8256    1.3303 H         1 <0>         0.0971
     51 H18        -3.9246   -3.2959    0.2104 H         1 <0>         0.1182
     52 H19        -3.2485   -5.5906   -0.3733 H         1 <0>         0.1383
     53 H20        -5.5742   -5.3681   -3.9414 H         1 <0>         0.1332
     54 H21        -6.2578   -3.0769   -3.3530 H         1 <0>         0.1298
     55 H22        -2.3317   -6.3730   -3.8160 H         1 <0>         0.0579
     56 H23        -2.9126   -8.0211   -4.1545 H         1 <0>         0.0662
     57 H24        -3.8761   -6.6150   -4.6672 H         1 <0>         0.0585
     58 H25        -3.5485   -7.5837   -0.5128 H         1 <0>         0.0601
     59 H26        -2.7213   -8.5868   -1.7284 H         1 <0>         0.0660
     60 H27        -2.1404   -6.9387   -1.3900 H         1 <0>         0.0597
     61 H28        -5.8526   -7.5204   -3.4359 H         1 <0>         0.0586
     62 H29        -4.8891   -8.9265   -2.9232 H         1 <0>         0.0661
     63 H30        -5.7163   -7.9234   -1.7075 H         1 <0>         0.0581
     64 H31        -6.9141   -0.6886    0.1983 H         1 <0>         0.0932
     65 H32        -7.6991   -3.3281   -1.1185 H         1 <0>         0.0715
     66 H33        -8.7332   -2.3562   -0.0442 H         1 <0>         0.0774
     67 H34        -8.2420   -1.7117   -1.6290 H         1 <0>         0.0653
     68 H35        -5.3580   -2.1085    1.5063 H         1 <0>         0.0489
     69 H36        -7.0491   -2.5879    1.7867 H         1 <0>         0.0838
     70 H37        -6.0149   -3.5599    0.7124 H         1 <0>         0.0835
     71 N4         -4.4000   -0.9271   -0.6025 N.4       1 <0>        -0.5050
     72 H38        -4.2919   -1.1889    0.3845 H         1 <0>         0.4302
     73 H39        -3.5516   -1.1854   -1.1200 H         1 <0>         0.4415
@<TRIPOS>BOND
     1    1    2 1
     2    1   36 1
     3    1   37 1
     4    1   38 1
     5    2    7 1
     6    2    3 2
     7    3    4 1
     8    3   15 1
     9    4    5 2
    10    4    6 am
    11    6    7 1
    12    6    9 1
    13    7    8 1
    14    8   39 1
    15    8   40 1
    16    8   41 1
    17    9   14 ar
    18    9   10 ar
    19   10   11 ar
    20   10   42 1
    21   11   12 ar
    22   11   43 1
    23   12   13 ar
    24   12   44 1
    25   13   14 ar
    26   13   45 1
    27   14   46 1
    28   15   16 am
    29   15   47 1
    30   16   17 2
    31   16   18 1
    32   18   19 1
    33   18   20 1
    34   18   71 1
    35   20   48 1
    36   20   49 1
    37   20   50 1
    38   21   22 1
    39   21   23 1
    40   21   33 1
    41   21   71 1
    42   23   28 ar
    43   23   24 ar
    44   24   25 ar
    45   24   51 1
    46   25   26 ar
    47   25   52 1
    48   26   27 ar
    49   26   29 1
    50   27   28 ar
    51   27   53 1
    52   28   54 1
    53   29   30 1
    54   29   31 1
    55   29   32 1
    56   30   55 1
    57   30   56 1
    58   30   57 1
    59   31   58 1
    60   31   59 1
    61   31   60 1
    62   32   61 1
    63   32   62 1
    64   32   63 1
    65   33   34 1
    66   33   35 1
    67   33   64 1
    68   34   65 1
    69   34   66 1
    70   34   67 1
    71   35   68 1
    72   35   69 1
    73   35   70 1
    74   71   72 1
    75   71   73 1
@<TRIPOS>MOLECULE
ZINC14969857
   60    65     0     0     0
SMALL
USER_CHARGES
(7R)-3-[(2-fluorophenyl)methyl]-7-[2-(1H-indol-3-yl)ethylamino]-5,6,7,8-tetrahydrobenzothiopheno[3,2-e]pyrimidin-4-one
@<TRIPOS>ATOM
      1 C1          8.7875    0.2246  -11.9645 C.ar      1 <0>        -0.1310
      2 C2          7.9159   -0.6915  -11.4051 C.ar      1 <0>        -0.0741
      3 C3          7.8895   -0.8736  -10.0356 C.ar      1 <0>        -0.1598
      4 C4          8.7394   -0.1413   -9.2237 C.ar      1 <0>         0.1192
      5 C5          9.6082    0.7790   -9.7846 C.ar      1 <0>        -0.1664
      6 C6          9.6333    0.9592  -11.1547 C.ar      1 <0>        -0.0723
      7 C7         10.5308    1.5797   -8.9020 C.3       1 <0>         0.1299
      8 N1          9.7668    2.6270   -8.2196 N.am      1 <0>        -0.5244
      9 C8          9.6460    3.8344   -8.8220 C.2       1 <0>         0.3998
     10 N2          8.9817    4.8368   -8.2901 N.2       1 <0>        -0.4761
     11 C9          8.4099    4.6318   -7.1075 C.2       1 <0>         0.1101
     12 C10         8.4786    3.4106   -6.4010 C.2       1 <0>        -0.2661
     13 C11         9.2142    2.3426   -7.0165 C.2       1 <0>         0.5547
     14 O1          9.3333    1.2496   -6.4902 O.2       1 <0>        -0.4871
     15 C12         7.7924    3.3709   -5.1221 C.2       1 <0>        -0.0262
     16 C13         7.1580    4.5037   -4.7383 C.2       1 <0>        -0.2212
     17 S1          7.4448    5.6642   -6.0506 S.3       1 <0>         0.1861
     18 C14         6.3811    4.7257   -3.4775 C.3       1 <0>        -0.0406
     19 C15         6.0900    3.3602   -2.8389 C.3       1 <0>         0.0325
     20 H1          5.3383    2.8319   -3.4255 H         1 <0>         0.1461
     21 C16         7.3868    2.5458   -2.8123 C.3       1 <0>        -0.1406
     22 C17         7.7683    2.1302   -4.2332 C.3       1 <0>        -0.0577
     23 C18         4.1479    3.7743   -1.4534 C.3       1 <0>        -0.0053
     24 C19         3.6757    3.9692   -0.0112 C.3       1 <0>        -0.0589
     25 C20         2.1862    4.1975    0.0031 C.2       1 <0>        -0.2048
     26 C21         1.5605    5.3850    0.0150 C.2       1 <0>         0.0846
     27 N3          0.2050    5.1982    0.0267 N.pl3     1 <0>        -0.5882
     28 H2         -0.4554    5.9086    0.0362 H         1 <0>         0.4230
     29 C22        -0.0819    3.8515    0.0226 C.ar      1 <0>         0.0942
     30 C23         1.1465    3.1655    0.0076 C.ar      1 <0>        -0.1006
     31 C24         1.1647    1.7697    0.0004 C.ar      1 <0>        -0.0841
     32 C25        -0.0126    1.0758    0.0080 C.ar      1 <0>        -0.1326
     33 C26        -1.2269    1.7478    0.0174 C.ar      1 <0>        -0.0934
     34 C27        -1.2679    3.1250    0.0300 C.ar      1 <0>        -0.1221
     35 F1          8.7180   -0.3222   -7.8851 F         1 <0>        -0.1141
     36 H3          8.8078    0.3660  -13.0350 H         1 <0>         0.1367
     37 H4          7.2558   -1.2651  -12.0387 H         1 <0>         0.1375
     38 H5          7.2089   -1.5894   -9.5989 H         1 <0>         0.1377
     39 H6         10.3137    1.6744  -11.5928 H         1 <0>         0.1382
     40 H7         11.3103    2.0371   -9.5114 H         1 <0>         0.1168
     41 H8         10.9871    0.9222   -8.1621 H         1 <0>         0.1180
     42 H9         10.1174    3.9805   -9.7827 H         1 <0>         0.2155
     43 H10         5.4426    5.2291   -3.7095 H         1 <0>         0.1047
     44 H11         6.9666    5.3348   -2.7889 H         1 <0>         0.1035
     45 H12         8.1861    3.1514   -2.3851 H         1 <0>         0.0936
     46 H13         7.2426    1.6550   -2.2008 H         1 <0>         0.0961
     47 H14         8.7551    1.6675   -4.2255 H         1 <0>         0.1086
     48 H15         7.0350    1.4199   -4.6150 H         1 <0>         0.0927
     49 H16         3.6438    2.9107   -1.8872 H         1 <0>         0.1320
     50 H17         3.9111    4.6641   -2.0367 H         1 <0>         0.1305
     51 H18         4.1798    4.8328    0.4226 H         1 <0>         0.0917
     52 H19         3.9125    3.0794    0.5721 H         1 <0>         0.0921
     53 H20         2.0538    6.3457    0.0152 H         1 <0>         0.1731
     54 H21         2.1059    1.2401   -0.0107 H         1 <0>         0.1182
     55 H22         0.0021   -0.0041    0.0020 H         1 <0>         0.1269
     56 H23        -2.1490    1.1855    0.0191 H         1 <0>         0.1313
     57 H24        -2.2179    3.6387    0.0415 H         1 <0>         0.1253
     58 N4          5.6061    3.5516   -1.4586 N.4       1 <0>        -0.5172
     59 H25         6.0746    4.3664   -1.0454 H         1 <0>         0.4303
     60 H26         5.8229    2.7147   -0.9046 H         1 <0>         0.4338
@<TRIPOS>BOND
     1    1    6 ar
     2    1    2 ar
     3    1   36 1
     4    2    3 ar
     5    2   37 1
     6    3    4 ar
     7    3   38 1
     8    4    5 ar
     9    4   35 1
    10    5    6 ar
    11    5    7 1
    12    6   39 1
    13    7    8 1
    14    7   40 1
    15    7   41 1
    16    8   13 am
    17    8    9 1
    18    9   10 2
    19    9   42 1
    20   10   11 1
    21   11   17 1
    22   11   12 2
    23   12   13 1
    24   12   15 1
    25   13   14 2
    26   15   22 1
    27   15   16 2
    28   16   17 1
    29   16   18 1
    30   18   19 1
    31   18   43 1
    32   18   44 1
    33   19   20 1
    34   19   21 1
    35   19   58 1
    36   21   22 1
    37   21   45 1
    38   21   46 1
    39   22   47 1
    40   22   48 1
    41   23   24 1
    42   23   49 1
    43   23   50 1
    44   23   58 1
    45   24   25 1
    46   24   51 1
    47   24   52 1
    48   25   30 1
    49   25   26 2
    50   26   27 1
    51   26   53 1
    52   27   28 1
    53   27   29 1
    54   29   34 ar
    55   29   30 ar
    56   30   31 ar
    57   31   32 ar
    58   31   54 1
    59   32   33 ar
    60   32   55 1
    61   33   34 ar
    62   33   56 1
    63   34   57 1
    64   58   59 1
    65   58   60 1
@<TRIPOS>MOLECULE
ZINC28654316
   64    68     0     0     0
SMALL
USER_CHARGES
(2R)-1-(1-acetylindolin-5-yl)-2-[[(2R)-2-(1H-indol-3-yl)-2-phenyl-ethyl]amino]propan-1-one
@<TRIPOS>ATOM
      1 C1          1.8991   -0.7789    1.3933 C.3       1 <0>        -0.1791
      2 C2          1.3172   -0.7397   -0.0212 C.3       1 <0>        -0.0103
      3 H1          2.0097   -0.2453   -0.7184 H         1 <0>         0.1618
      4 C3          0.0021   -0.0040   -0.0032 C.2       1 <0>         0.4022
      5 O1         -1.0400   -0.6248    0.0036 O.2       1 <0>        -0.4399
      6 C4         -0.0178    1.4643    0.0062 C.ar      1 <0>        -0.2177
      7 C5          1.1820    2.1867   -0.0016 C.ar      1 <0>        -0.0424
      8 C6          1.1616    3.5492    0.0072 C.ar      1 <0>        -0.1470
      9 C7         -0.0536    4.2446    0.0244 C.ar      1 <0>         0.2084
     10 C8         -1.2453    3.5300    0.0322 C.ar      1 <0>        -0.1539
     11 C9         -1.2366    2.1536    0.0171 C.ar      1 <0>         0.0022
     12 C10        -2.3944    4.5132    0.0511 C.3       1 <0>        -0.0927
     13 C11        -1.7188    5.8942    0.0535 C.3       1 <0>         0.0938
     14 N1         -0.2800    5.6188    0.0363 N.am      1 <0>        -0.5545
     15 C12         0.6853    6.5594    0.0325 C.2       1 <0>         0.5249
     16 O2          1.8506    6.2327    0.1107 O.2       1 <0>        -0.5090
     17 C13         0.3165    8.0171   -0.0688 C.3       1 <0>        -0.1763
     18 N2          1.1044   -2.1116   -0.5013 N.4       1 <0>        -0.5335
     19 C14         2.3334   -2.6600   -1.0900 C.3       1 <0>         0.0015
     20 C15         2.0730   -4.0867   -1.5774 C.3       1 <0>         0.0218
     21 H2          1.2189   -4.1032   -2.2704 H         1 <0>         0.1065
     22 C16         1.7664   -4.9725   -0.3975 C.ar      1 <0>        -0.1185
     23 C17         2.7018   -5.1336    0.6074 C.ar      1 <0>        -0.1173
     24 C18         2.4189   -5.9427    1.6919 C.ar      1 <0>        -0.1117
     25 C19         1.2043   -6.5984    1.7668 C.ar      1 <0>        -0.1053
     26 C20         0.2707   -6.4412    0.7595 C.ar      1 <0>        -0.1092
     27 C21         0.5519   -5.6286   -0.3228 C.ar      1 <0>        -0.1120
     28 C22         3.2953   -4.6049   -2.2905 C.2       1 <0>        -0.1905
     29 C23         4.5251   -4.7420   -1.7703 C.2       1 <0>         0.0690
     30 N3          5.3776   -5.2462   -2.7144 N.pl3     1 <0>        -0.5991
     31 H3          6.4317   -5.4318   -2.4606 H         1 <0>         0.4496
     32 C24         4.7021   -5.4418   -3.8982 C.ar      1 <0>         0.1083
     33 C25         3.3681   -5.0487   -3.6847 C.ar      1 <0>        -0.0975
     34 C26         2.4408   -5.1378   -4.7243 C.ar      1 <0>        -0.0809
     35 C27         2.8342   -5.6073   -5.9459 C.ar      1 <0>        -0.1349
     36 C28         4.1490   -5.9958   -6.1618 C.ar      1 <0>        -0.0936
     37 C29         5.0806   -5.9161   -5.1497 C.ar      1 <0>        -0.1249
     38 H4          2.8590   -1.3159    1.3801 H         1 <0>         0.0959
     39 H5          1.1981   -1.2974    2.0639 H         1 <0>         0.0905
     40 H6          2.0586    0.2484    1.7528 H         1 <0>         0.1140
     41 H7          2.1261    1.6624   -0.0142 H         1 <0>         0.1355
     42 H8          2.0917    4.0980    0.0011 H         1 <0>         0.1515
     43 H9         -2.1677    1.6065    0.0186 H         1 <0>         0.1425
     44 H10        -3.0196    4.3637   -0.8416 H         1 <0>         0.1010
     45 H11        -3.0007    4.3514    0.9546 H         1 <0>         0.1011
     46 H12        -2.0330    6.4576   -0.8375 H         1 <0>         0.0972
     47 H13        -2.0139    6.4452    0.9587 H         1 <0>         0.0969
     48 H14         1.2309    8.6284   -0.0566 H         1 <0>         0.1054
     49 H15        -0.3211    8.2941    0.7837 H         1 <0>         0.0987
     50 H16        -0.2295    8.1928   -1.0074 H         1 <0>         0.0990
     51 H17         0.8004   -2.7515    0.3402 H         1 <0>         0.4519
     52 H18         2.6445   -2.0336   -1.9390 H         1 <0>         0.1375
     53 H19         3.1300   -2.6713   -0.3315 H         1 <0>         0.1299
     54 H20         3.6524   -4.6245    0.5469 H         1 <0>         0.1217
     55 H21         3.1481   -6.0653    2.4790 H         1 <0>         0.1282
     56 H22         0.9845   -7.2332    2.6124 H         1 <0>         0.1290
     57 H23        -0.6783   -6.9535    0.8180 H         1 <0>         0.1300
     58 H24        -0.1773   -5.5060   -1.1100 H         1 <0>         0.1271
     59 H25         4.8003   -4.4938   -0.7559 H         1 <0>         0.1663
     60 H26         1.4160   -4.8373   -4.5636 H         1 <0>         0.1187
     61 H27         2.1164   -5.6761   -6.7499 H         1 <0>         0.1262
     62 H28         4.4450   -6.3641   -7.1330 H         1 <0>         0.1301
     63 H29         6.1013   -6.2213   -5.3275 H         1 <0>         0.1240
     64 H30         0.3150   -2.1137   -1.2674 H         1 <0>         0.4519
@<TRIPOS>BOND
     1    1    2 1
     2    1   38 1
     3    1   39 1
     4    1   40 1
     5    2    3 1
     6    2    4 1
     7    2   18 1
     8    4    5 2
     9    4    6 1
    10    6   11 ar
    11    6    7 ar
    12    7    8 ar
    13    7   41 1
    14    8    9 ar
    15    8   42 1
    16    9   14 1
    17    9   10 ar
    18   10   11 ar
    19   10   12 1
    20   11   43 1
    21   12   13 1
    22   12   44 1
    23   12   45 1
    24   13   14 1
    25   13   46 1
    26   13   47 1
    27   14   15 am
    28   15   16 2
    29   15   17 1
    30   17   48 1
    31   17   49 1
    32   17   50 1
    33   18   19 1
    34   18   51 1
    35   18   64 1
    36   19   20 1
    37   19   52 1
    38   19   53 1
    39   20   21 1
    40   20   22 1
    41   20   28 1
    42   22   27 ar
    43   22   23 ar
    44   23   24 ar
    45   23   54 1
    46   24   25 ar
    47   24   55 1
    48   25   26 ar
    49   25   56 1
    50   26   27 ar
    51   26   57 1
    52   27   58 1
    53   28   33 1
    54   28   29 2
    55   29   30 1
    56   29   59 1
    57   30   31 1
    58   30   32 1
    59   32   37 ar
    60   32   33 ar
    61   33   34 ar
    62   34   35 ar
    63   34   60 1
    64   35   36 ar
    65   35   61 1
    66   36   37 ar
    67   36   62 1
    68   37   63 1
@<TRIPOS>MOLECULE
ZINC39667095
   74    77     0     0     0
SMALL
USER_CHARGES

@<TRIPOS>ATOM
      1 C1          0.9949   -1.8312    0.8919 C.3       1 <0>        -0.1533
      2 C2          0.4771   -1.8799   -0.5470 C.3       1 <0>        -0.1096
      3 C3          0.4999   -0.4718   -1.1451 C.3       1 <0>        -0.0577
      4 H1         -0.0535    0.2074   -0.4966 H         1 <0>         0.0957
      5 C4         -0.1389   -0.4954   -2.5098 C.ar      1 <0>        -0.0905
      6 C5          0.3888   -1.2951   -3.5062 C.ar      1 <0>        -0.1052
      7 C6         -0.1971   -1.3167   -4.7581 C.ar      1 <0>        -0.1160
      8 C7         -1.3110   -0.5389   -5.0134 C.ar      1 <0>        -0.1118
      9 C8         -1.8393    0.2601   -4.0167 C.ar      1 <0>        -0.1167
     10 C9         -1.2559    0.2785   -2.7636 C.ar      1 <0>        -0.1100
     11 C10         1.9261   -0.0005   -1.2661 C.2       1 <0>         0.5540
     12 O1          2.8102   -0.7969   -1.5006 O.2       1 <0>        -0.5233
     13 N1          2.2193    1.3062   -1.1137 N.am      1 <0>        -0.6220
     14 C11         1.2759    2.4313   -0.9130 C.3       1 <0>         0.1104
     15 C12         1.9715    3.3441    0.1215 C.3       1 <0>        -0.1143
     16 H2          1.6221    3.1125    1.1277 H         1 <0>         0.1123
     17 C13         3.4688    3.0201   -0.0132 C.3       1 <0>        -0.0718
     18 C14         3.5587    1.9417   -1.1026 C.3       1 <0>         0.1075
     19 C15         4.0126    2.4766    1.3046 C.3       1 <0>        -0.1339
     20 C16         5.5148    2.2157    1.1626 C.3       1 <0>        -0.0114
     21 N2          6.1986    3.4647    0.8058 N.4       1 <0>        -0.5042
     22 C17         5.7363    3.9315   -0.5068 C.3       1 <0>        -0.0078
     23 C18         4.2434    4.2648   -0.4355 C.3       1 <0>        -0.1468
     24 C19         1.7149    4.7936   -0.2012 C.2       1 <0>         0.5185
     25 O2          1.5066    5.1321   -1.3470 O.2       1 <0>        -0.5175
     26 N3          1.7168    5.7139    0.7835 N.am      1 <0>        -0.7288
     27 C20         1.4673    7.1229    0.4698 C.3       1 <0>         0.1197
     28 C21         1.5247    7.9497    1.7559 C.3       1 <0>        -0.0867
     29 C22         1.2680    9.3992    1.4332 C.ar      1 <0>        -0.1010
     30 C23         2.3299   10.2581    1.2184 C.ar      1 <0>        -0.1057
     31 C24         2.0945   11.5875    0.9224 C.ar      1 <0>        -0.1252
     32 C25         0.7971   12.0583    0.8406 C.ar      1 <0>        -0.0738
     33 C26        -0.2644   11.1994    1.0544 C.ar      1 <0>        -0.1185
     34 C27        -0.0290    9.8687    1.3463 C.ar      1 <0>        -0.0720
     35 C28        -1.1866    8.9310    1.5741 C.3       1 <0>        -0.1214
     36 C29         0.5405   13.5080    0.5189 C.3       1 <0>        -0.1210
     37 H3          2.0458   -1.5418    0.8903 H         1 <0>         0.0514
     38 H4          0.4182   -1.1022    1.4611 H         1 <0>         0.0528
     39 H5          0.8896   -2.8149    1.3494 H         1 <0>         0.0642
     40 H6          1.1133   -2.5369   -1.1400 H         1 <0>         0.0808
     41 H7         -0.5442   -2.2607   -0.5529 H         1 <0>         0.0788
     42 H8          1.2590   -1.9028   -3.3068 H         1 <0>         0.1264
     43 H9          0.2156   -1.9410   -5.5368 H         1 <0>         0.1256
     44 H10        -1.7684   -0.5553   -5.9916 H         1 <0>         0.1257
     45 H11        -2.7093    0.8681   -4.2162 H         1 <0>         0.1263
     46 H12        -1.6708    0.8999   -1.9838 H         1 <0>         0.1213
     47 H13         1.1196    2.9678   -1.8489 H         1 <0>         0.1015
     48 H14         0.3270    2.0661   -0.5203 H         1 <0>         0.0926
     49 H15         4.3252    1.2093   -0.8494 H         1 <0>         0.0884
     50 H16         3.7715    2.3977   -2.0695 H         1 <0>         0.0828
     51 H17         3.8432    3.2061    2.0966 H         1 <0>         0.0964
     52 H18         3.5032    1.5452    1.5519 H         1 <0>         0.1180
     53 H19         5.9095    1.8428    2.1077 H         1 <0>         0.1400
     54 H20         5.6823    1.4741    0.3815 H         1 <0>         0.1340
     55 H21         5.9971    4.1673    1.5013 H         1 <0>         0.4274
     56 H22         6.2942    4.8234   -0.7920 H         1 <0>         0.1394
     57 H23         5.8987    3.1493   -1.2482 H         1 <0>         0.1335
     58 H24         3.8969    4.5941   -1.4151 H         1 <0>         0.1256
     59 H25         4.0821    5.0586    0.2939 H         1 <0>         0.0972
     60 H26         1.8834    5.4432    1.7000 H         1 <0>         0.4002
     61 H27         2.2265    7.4802   -0.2260 H         1 <0>         0.0730
     62 H28         0.4816    7.2251    0.0159 H         1 <0>         0.0769
     63 H29         0.7655    7.5924    2.4517 H         1 <0>         0.0819
     64 H30         2.5104    7.8476    2.2098 H         1 <0>         0.0752
     65 H31         3.3434    9.8904    1.2823 H         1 <0>         0.1188
     66 H32         2.9240   12.2586    0.7554 H         1 <0>         0.1232
     67 H33        -1.2779   11.5673    0.9908 H         1 <0>         0.1246
     68 H34        -1.4512    8.9307    2.6316 H         1 <0>         0.0732
     69 H35        -2.0427    9.2609    0.9855 H         1 <0>         0.0700
     70 H36        -0.9033    7.9234    1.2702 H         1 <0>         0.0663
     71 H37         0.4599   13.6317   -0.5611 H         1 <0>         0.0740
     72 H38        -0.3888   13.8260    0.9914 H         1 <0>         0.0692
     73 H39         1.3648   14.1148    0.8936 H         1 <0>         0.0689
     74 H40         7.1941    3.3039    0.7726 H         1 <0>         0.4344
@<TRIPOS>BOND
     1    1    2 1
     2    1   37 1
     3    1   38 1
     4    1   39 1
     5    2    3 1
     6    2   40 1
     7    2   41 1
     8    3    4 1
     9    3    5 1
    10    3   11 1
    11    5   10 ar
    12    5    6 ar
    13    6    7 ar
    14    6   42 1
    15    7    8 ar
    16    7   43 1
    17    8    9 ar
    18    8   44 1
    19    9   10 ar
    20    9   45 1
    21   10   46 1
    22   11   12 2
    23   11   13 am
    24   13   18 1
    25   13   14 1
    26   14   15 1
    27   14   47 1
    28   14   48 1
    29   15   16 1
    30   15   17 1
    31   15   24 1
    32   17   23 1
    33   17   18 1
    34   17   19 1
    35   18   49 1
    36   18   50 1
    37   19   20 1
    38   19   51 1
    39   19   52 1
    40   20   21 1
    41   20   53 1
    42   20   54 1
    43   21   22 1
    44   21   55 1
    45   21   74 1
    46   22   23 1
    47   22   56 1
    48   22   57 1
    49   23   58 1
    50   23   59 1
    51   24   25 2
    52   24   26 am
    53   26   27 1
    54   26   60 1
    55   27   28 1
    56   27   61 1
    57   27   62 1
    58   28   29 1
    59   28   63 1
    60   28   64 1
    61   29   34 ar
    62   29   30 ar
    63   30   31 ar
    64   30   65 1
    65   31   32 ar
    66   31   66 1
    67   32   33 ar
    68   32   36 1
    69   33   34 ar
    70   33   67 1
    71   34   35 1
    72   35   68 1
    73   35   69 1
    74   35   70 1
    75   36   71 1
    76   36   72 1
    77   36   73 1
@<TRIPOS>MOLECULE
ZINC19925257
   60    63     0     0     0
SMALL
USER_CHARGES

@<TRIPOS>ATOM
      1 C1          1.9826    1.1979    0.1888 C.3       1 <0>        -0.1353
      2 C2          2.0789   -0.2994    0.0469 C.ar      1 <0>        -0.0049
      3 C3          3.1810   -0.8629   -0.5719 C.ar      1 <0>        -0.1176
      4 C4          3.2756   -2.2324   -0.7056 C.ar      1 <0>        -0.0383
      5 C5          2.2559   -3.0509   -0.2143 C.ar      1 <0>        -0.1775
      6 C6          1.1466   -2.4752    0.4095 C.ar      1 <0>        -0.0752
      7 C7          1.0677   -1.1044    0.5410 C.ar      1 <0>        -0.1163
      8 C8          2.3498   -4.5177   -0.3543 C.cat     1 <0>         0.6005
      9 N1          3.5577   -5.1426   -0.2083 N.pl3     1 <0>        -0.6280
     10 C9          3.6509   -6.5980   -0.3471 C.3       1 <0>         0.1152
     11 C10         5.0795   -7.0317   -0.1418 C.ar      1 <0>        -0.1401
     12 C11         5.9427   -7.1001   -1.2194 C.ar      1 <0>        -0.0908
     13 C12         7.2531   -7.4980   -1.0312 C.ar      1 <0>        -0.1169
     14 C13         7.7005   -7.8269    0.2347 C.ar      1 <0>        -0.0877
     15 C14         6.8375   -7.7576    1.3125 C.ar      1 <0>        -0.1158
     16 C15         5.5283   -7.3557    1.1249 C.ar      1 <0>        -0.0903
     17 N2          1.2677   -5.2262   -0.6203 N.pl3     1 <0>        -0.5994
     18 C16         0.1061   -4.6057   -0.8795 C.2       1 <0>         0.4959
     19 S1         -1.1263   -4.5651    0.3080 S.2       1 <0>        -0.3675
     20 N3         -0.0900   -4.0145   -2.0748 N.pl3     1 <0>        -0.4035
     21 N4          0.9186   -4.0478   -3.0466 N.pl3     1 <0>        -0.4061
     22 C17         1.1652   -5.2250   -3.7574 C.ar      1 <0>         0.1740
     23 C18         0.5165   -6.4013   -3.4028 C.ar      1 <0>        -0.1891
     24 C19         0.7627   -7.5631   -4.1075 C.ar      1 <0>        -0.0710
     25 C20         1.6538   -7.5566   -5.1651 C.ar      1 <0>        -0.1396
     26 C21         2.3016   -6.3876   -5.5204 C.ar      1 <0>        -0.0689
     27 C22         2.0554   -5.2208   -4.8240 C.ar      1 <0>        -0.1584
     28 C23         1.6777   -2.9037   -3.3050 C.ar      1 <0>         0.1471
     29 C24         1.0511   -1.6743   -3.4665 C.ar      1 <0>        -0.1235
     30 C25         1.8045   -0.5454   -3.7218 C.ar      1 <0>        -0.0847
     31 C26         3.1811   -0.6378   -3.8168 C.ar      1 <0>        -0.1106
     32 C27         3.8080   -1.8600   -3.6570 C.ar      1 <0>        -0.0962
     33 C28         3.0612   -2.9918   -3.3954 C.ar      1 <0>        -0.1380
     34 H1          2.4445    1.5043    1.1273 H         1 <0>         0.0897
     35 H2          2.4992    1.6757   -0.6436 H         1 <0>         0.0800
     36 H3          0.9343    1.4964    0.1853 H         1 <0>         0.0804
     37 H4          3.9687   -0.2289   -0.9513 H         1 <0>         0.1440
     38 H5          4.1359   -2.6709   -1.1894 H         1 <0>         0.1355
     39 H6          0.3546   -3.1021    0.7917 H         1 <0>         0.1578
     40 H7          0.2127   -0.6581    1.0270 H         1 <0>         0.1457
     41 H8          3.0155   -7.0756    0.3987 H         1 <0>         0.1093
     42 H9          3.3224   -6.8896   -1.3447 H         1 <0>         0.1073
     43 H10         5.5931   -6.8431   -2.2084 H         1 <0>         0.1261
     44 H11         7.9272   -7.5521   -1.8732 H         1 <0>         0.1334
     45 H12         8.7241   -8.1384    0.3817 H         1 <0>         0.1338
     46 H13         7.1870   -8.0150    2.3014 H         1 <0>         0.1342
     47 H14         4.8551   -7.2980    1.9674 H         1 <0>         0.1285
     48 H15        -0.9295   -3.5661   -2.2621 H         1 <0>         0.4549
     49 H16        -0.1792   -6.4071   -2.5768 H         1 <0>         0.1137
     50 H17         0.2591   -8.4779   -3.8322 H         1 <0>         0.1341
     51 H18         1.8445   -8.4666   -5.7145 H         1 <0>         0.1332
     52 H19         2.9974   -6.3862   -6.3464 H         1 <0>         0.1362
     53 H20         2.5580   -4.3071   -5.1051 H         1 <0>         0.1369
     54 H21        -0.0239   -1.6015   -3.3928 H         1 <0>         0.1245
     55 H22         1.3181    0.4106   -3.8479 H         1 <0>         0.1346
     56 H23         3.7679    0.2466   -4.0166 H         1 <0>         0.1341
     57 H24         4.8831   -1.9287   -3.7325 H         1 <0>         0.1356
     58 H25         3.5518   -3.9453   -3.2659 H         1 <0>         0.1241
     59 H26         4.3526   -4.6221   -0.0128 H         1 <0>         0.4443
     60 H27         1.3122   -6.1952   -0.6285 H         1 <0>         0.4465
@<TRIPOS>BOND
     1    1    2 1
     2    1   34 1
     3    1   35 1
     4    1   36 1
     5    2    7 ar
     6    2    3 ar
     7    3    4 ar
     8    3   37 1
     9    4    5 ar
    10    4   38 1
    11    5    6 ar
    12    5    8 1
    13    6    7 ar
    14    6   39 1
    15    7   40 1
    16    8    9 1
    17    8   17 2
    18    9   10 1
    19    9   59 1
    20   10   11 1
    21   10   41 1
    22   10   42 1
    23   11   16 ar
    24   11   12 ar
    25   12   13 ar
    26   12   43 1
    27   13   14 ar
    28   13   44 1
    29   14   15 ar
    30   14   45 1
    31   15   16 ar
    32   15   46 1
    33   16   47 1
    34   17   18 1
    35   17   60 1
    36   18   19 2
    37   18   20 1
    38   20   21 1
    39   20   48 1
    40   21   22 1
    41   21   28 1
    42   22   27 ar
    43   22   23 ar
    44   23   24 ar
    45   23   49 1
    46   24   25 ar
    47   24   50 1
    48   25   26 ar
    49   25   51 1
    50   26   27 ar
    51   26   52 1
    52   27   53 1
    53   28   33 ar
    54   28   29 ar
    55   29   30 ar
    56   29   54 1
    57   30   31 ar
    58   30   55 1
    59   31   32 ar
    60   31   56 1
    61   32   33 ar
    62   32   57 1
    63   33   58 1
@<TRIPOS>MOLECULE
ZINC07913683
   60    63     0     0     0
SMALL
USER_CHARGES
N-[1-[(4-fluorobenzoyl)aminocarbamoyl]-2-methyl-propyl]adamantane-1-carboxamide
@<TRIPOS>ATOM
      1 C1         -4.6069    7.1235   -0.6331 C.3       1 <0>        -0.1501
      2 C2         -3.3127    7.7483   -0.1082 C.3       1 <0>        -0.1040
      3 C3         -3.1037    7.3383    1.3510 C.3       1 <0>        -0.1398
      4 C4         -2.1322    7.2589   -0.9495 C.3       1 <0>         0.1438
      5 H1         -1.2017    7.6325   -0.5220 H         1 <0>         0.1223
      6 C5         -2.2763    7.7671   -2.3609 C.2       1 <0>         0.5166
      7 O1         -2.3548    6.9829   -3.2827 O.2       1 <0>        -0.5314
      8 N1         -2.3181    9.0930   -2.5987 N.am      1 <0>        -0.5147
      9 N2         -2.4521    9.5655   -3.9108 N.am      1 <0>        -0.5186
     10 C6         -2.4939   10.8914   -4.1486 C.2       1 <0>         0.5658
     11 O2         -2.4153   11.6775   -3.2246 O.2       1 <0>        -0.5285
     12 C7         -2.6352   11.3896   -5.5322 C.ar      1 <0>        -0.1442
     13 C8         -2.7199   10.4889   -6.5960 C.ar      1 <0>        -0.0547
     14 C9         -2.8580   10.9590   -7.8844 C.ar      1 <0>        -0.1587
     15 C10        -2.9002   12.3237   -8.1263 C.ar      1 <0>         0.1338
     16 C11        -2.8107   13.2224   -7.0742 C.ar      1 <0>        -0.1595
     17 C12        -2.6787   12.7630   -5.7814 C.ar      1 <0>        -0.0223
     18 F1         -3.0295   12.7792   -9.3916 F         1 <0>        -0.1296
     19 N3         -2.1123    5.7940   -0.9575 N.am      1 <0>        -0.7093
     20 C13        -1.5100    5.1227    0.0440 C.2       1 <0>         0.5291
     21 O3         -0.9845    5.7313    0.9519 O.2       1 <0>        -0.5269
     22 C14        -1.4896    3.6159    0.0357 C.3       1 <0>        -0.0662
     23 C15        -0.7734    3.1225   -1.2231 C.3       1 <0>        -0.1012
     24 C16        -0.7527    1.5927   -1.2315 C.3       1 <0>        -0.0838
     25 C17        -0.0127    1.0858    0.0080 C.3       1 <0>        -0.1105
     26 C18        -0.7288    1.5792    1.2668 C.3       1 <0>        -0.0869
     27 C19        -0.7496    3.1091    1.2752 C.3       1 <0>        -0.0865
     28 C20        -2.1642    1.0497    1.2777 C.3       1 <0>        -0.1103
     29 C21        -2.9042    1.5565    0.0381 C.3       1 <0>        -0.0838
     30 C22        -2.1881    1.0631   -1.2207 C.3       1 <0>        -0.1103
     31 C23        -2.9250    3.0863    0.0466 C.3       1 <0>        -0.1003
     32 H2         -4.5390    6.0376   -0.5670 H         1 <0>         0.0613
     33 H3         -5.4479    7.4722   -0.0337 H         1 <0>         0.0638
     34 H4         -4.7557    7.4156   -1.6727 H         1 <0>         0.0520
     35 H5         -3.3805    8.8342   -0.1743 H         1 <0>         0.0832
     36 H6         -3.9447    7.6870    1.9504 H         1 <0>         0.0548
     37 H7         -3.0359    6.2524    1.4172 H         1 <0>         0.0615
     38 H8         -2.1817    7.7834    1.7250 H         1 <0>         0.0649
     39 H9         -2.2554    9.7202   -1.8614 H         1 <0>         0.4359
     40 H10        -2.5148    8.9383   -4.6481 H         1 <0>         0.4323
     41 H11        -2.6819    9.4259   -6.4092 H         1 <0>         0.1374
     42 H12        -2.9284   10.2633   -8.7074 H         1 <0>         0.1469
     43 H13        -2.8449   14.2843   -7.2681 H         1 <0>         0.1481
     44 H14        -2.6095   13.4639   -4.9626 H         1 <0>         0.1509
     45 H15        -2.5327    5.3073   -1.6837 H         1 <0>         0.4102
     46 H16         0.2491    3.4998   -1.2308 H         1 <0>         0.0679
     47 H17        -1.3006    3.4836   -2.1062 H         1 <0>         0.0679
     48 H18        -0.2425    1.2411   -2.1283 H         1 <0>         0.0745
     49 H19         0.0021   -0.0041    0.0020 H         1 <0>         0.0645
     50 H20         1.0099    1.4631    0.0003 H         1 <0>         0.0631
     51 H21        -0.2017    1.2182    2.1499 H         1 <0>         0.0745
     52 H22        -1.2598    3.4606    2.1720 H         1 <0>         0.0700
     53 H23         0.2730    3.4864    1.2675 H         1 <0>         0.0697
     54 H24        -2.6744    1.4012    2.1745 H         1 <0>         0.0633
     55 H25        -2.1494   -0.0402    1.2717 H         1 <0>         0.0645
     56 H26        -3.9268    1.1792    0.0459 H         1 <0>         0.0745
     57 H27        -2.7153    1.4241   -2.1037 H         1 <0>         0.0635
     58 H28        -2.1733   -0.0268   -1.2266 H         1 <0>         0.0654
     59 H29        -3.4522    3.4474   -0.8365 H         1 <0>         0.0659
     60 H30        -3.4352    3.4378    0.9434 H         1 <0>         0.0686
@<TRIPOS>BOND
     1    1    2 1
     2    1   32 1
     3    1   33 1
     4    1   34 1
     5    2    3 1
     6    2    4 1
     7    2   35 1
     8    3   36 1
     9    3   37 1
    10    3   38 1
    11    4    5 1
    12    4    6 1
    13    4   19 1
    14    6    7 2
    15    6    8 am
    16    8    9 1
    17    8   39 1
    18    9   10 am
    19    9   40 1
    20   10   11 2
    21   10   12 1
    22   12   17 ar
    23   12   13 ar
    24   13   14 ar
    25   13   41 1
    26   14   15 ar
    27   14   42 1
    28   15   16 ar
    29   15   18 1
    30   16   17 ar
    31   16   43 1
    32   17   44 1
    33   19   20 am
    34   19   45 1
    35   20   21 2
    36   20   22 1
    37   22   27 1
    38   22   31 1
    39   22   23 1
    40   23   24 1
    41   23   46 1
    42   23   47 1
    43   24   30 1
    44   24   25 1
    45   24   48 1
    46   25   26 1
    47   25   49 1
    48   25   50 1
    49   26   27 1
    50   26   28 1
    51   26   51 1
    52   27   52 1
    53   27   53 1
    54   28   29 1
    55   28   54 1
    56   28   55 1
    57   29   30 1
    58   29   31 1
    59   29   56 1
    60   30   57 1
    61   30   58 1
    62   31   59 1
    63   31   60 1
@<TRIPOS>MOLECULE
ZINC12880998
   44    46     0     0     0
SMALL
USER_CHARGES
(4S)-4-(3-fluorophenyl)-6-methyl-2-oxo-N-[4-(trifluoromethoxy)phenyl]-3,4-dihydro-1H-pyrimidine-5-carboxamide
@<TRIPOS>ATOM
      1 C1         -0.0336    0.6733   -0.3826 C.3       1 <0>        -0.1375
      2 C2         -0.7610    1.2997    0.7791 C.2       1 <0>         0.2090
      3 C3         -0.0793    1.6035    1.9031 C.2       1 <0>        -0.2858
      4 C4         -0.8489    2.2319    3.0471 C.3       1 <0>         0.2449
      5 H1         -0.3858    3.1916    3.2765 H         1 <0>         0.0949
      6 N1         -2.2883    2.4613    2.8367 N.am      1 <0>        -0.7101
      7 C5         -2.8289    2.1036    1.6552 C.2       1 <0>         0.7071
      8 O1         -4.0162    2.2887    1.4716 O.2       1 <0>        -0.5617
      9 N2         -2.0994    1.5559    0.6748 N.am      1 <0>        -0.6504
     10 C6         -0.6916    1.3452    4.2554 C.ar      1 <0>        -0.0877
     11 C7         -1.3807    0.1488    4.3290 C.ar      1 <0>        -0.1101
     12 C8         -1.2336   -0.6678    5.4345 C.ar      1 <0>        -0.0880
     13 C9         -0.4054   -0.2842    6.4725 C.ar      1 <0>        -0.1456
     14 C10         0.2809    0.9160    6.4022 C.ar      1 <0>         0.1050
     15 C11         0.1369    1.7308    5.2918 C.ar      1 <0>        -0.1372
     16 F1          1.0903    1.2923    7.4164 F         1 <0>        -0.1352
     17 C12         1.3092    1.3432    2.0104 C.2       1 <0>         0.6015
     18 O2          2.1120    2.2433    1.8433 O.2       1 <0>        -0.5044
     19 N3          1.7415    0.0993    2.2973 N.am      1 <0>        -0.6583
     20 C13         3.1066   -0.2032    2.2184 C.ar      1 <0>         0.1298
     21 C14         4.0505    0.8072    2.3461 C.ar      1 <0>        -0.0991
     22 C15         5.3964    0.5076    2.2721 C.ar      1 <0>        -0.1674
     23 C16         5.8054   -0.8011    2.0611 C.ar      1 <0>         0.0851
     24 C17         4.8630   -1.8103    1.9286 C.ar      1 <0>        -0.1005
     25 C18         3.5168   -1.5129    2.0067 C.ar      1 <0>        -0.1136
     26 O3          7.1309   -1.0946    1.9836 O.3       1 <0>        -0.3108
     27 C19         8.0459   -0.0067    2.1288 C.3       1 <0>         0.6038
     28 F2          7.8657    0.5902    3.3812 F         1 <0>        -0.1645
     29 F3          9.3571   -0.4829    2.0236 F         1 <0>        -0.1307
     30 F4          7.8107    0.9378    1.1239 F         1 <0>        -0.1643
     31 H2          0.0033   -0.4077   -0.2479 H         1 <0>         0.0961
     32 H3          0.9812    1.0682   -0.4314 H         1 <0>         0.0929
     33 H4         -0.5591    0.9064   -1.3087 H         1 <0>         0.0878
     34 H5         -2.8343    2.8601    3.5322 H         1 <0>         0.4345
     35 H6         -2.5468    1.3241   -0.1540 H         1 <0>         0.4285
     36 H7         -2.0312   -0.1499    3.5203 H         1 <0>         0.1245
     37 H8         -1.7692   -1.6041    5.4891 H         1 <0>         0.1361
     38 H9         -0.2941   -0.9203    7.3381 H         1 <0>         0.1381
     39 H10         0.6721    2.6672    5.2358 H         1 <0>         0.1382
     40 H11         1.1070   -0.5864    2.5584 H         1 <0>         0.4139
     41 H12         3.7321    1.8267    2.5062 H         1 <0>         0.1705
     42 H13         6.1308    1.2928    2.3748 H         1 <0>         0.1368
     43 H14         5.1822   -2.8288    1.7640 H         1 <0>         0.1435
     44 H15         2.7831   -2.2986    1.9029 H         1 <0>         0.1405
@<TRIPOS>BOND
     1    1    2 1
     2    1   31 1
     3    1   32 1
     4    1   33 1
     5    2    9 1
     6    2    3 2
     7    3    4 1
     8    3   17 1
     9    4    5 1
    10    4    6 1
    11    4   10 1
    12    6    7 am
    13    6   34 1
    14    7    8 2
    15    7    9 am
    16    9   35 1
    17   10   15 ar
    18   10   11 ar
    19   11   12 ar
    20   11   36 1
    21   12   13 ar
    22   12   37 1
    23   13   14 ar
    24   13   38 1
    25   14   15 ar
    26   14   16 1
    27   15   39 1
    28   17   18 2
    29   17   19 am
    30   19   20 1
    31   19   40 1
    32   20   25 ar
    33   20   21 ar
    34   21   22 ar
    35   21   41 1
    36   22   23 ar
    37   22   42 1
    38   23   24 ar
    39   23   26 1
    40   24   25 ar
    41   24   43 1
    42   25   44 1
    43   26   27 1
    44   27   28 1
    45   27   29 1
    46   27   30 1
@<TRIPOS>MOLECULE
ZINC28580065
   66    69     0     0     0
SMALL
USER_CHARGES
N-[(1S)-1-[[[2-(1-adamantyl)acetyl]amino]carbamoyl]-2-methyl-propyl]-3-methyl-benzamide
@<TRIPOS>ATOM
      1 C1         -3.7895    1.9890   -1.9867 C.3       1 <0>        -0.1193
      2 C2         -2.3846    2.5325   -1.9414 C.ar      1 <0>        -0.0923
      3 C3         -1.3321    1.7651   -2.4088 C.ar      1 <0>        -0.0939
      4 C4         -0.0402    2.2586   -2.3756 C.ar      1 <0>        -0.1222
      5 C5          0.2075    3.5187   -1.8712 C.ar      1 <0>        -0.0917
      6 C6         -0.8487    4.2957   -1.3934 C.ar      1 <0>        -0.1304
      7 C7         -2.1500    3.7916   -1.4294 C.ar      1 <0>        -0.0609
      8 C8         -0.5906    5.6467   -0.8512 C.2       1 <0>         0.5658
      9 O1         -1.5125    6.3212   -0.4357 O.2       1 <0>        -0.5315
     10 N1          0.6670    6.1304   -0.8175 N.am      1 <0>        -0.7214
     11 C9          0.9227    7.4690   -0.2801 C.3       1 <0>         0.1475
     12 H1          0.0722    8.1073   -0.5617 H         1 <0>         0.1143
     13 C10         1.0695    7.3886    1.2407 C.3       1 <0>        -0.0976
     14 C11        -0.2575    6.9429    1.8583 C.3       1 <0>        -0.1413
     15 C12         2.1620    6.3777    1.5949 C.3       1 <0>        -0.1496
     16 C13         2.1926    8.0166   -0.8791 C.2       1 <0>         0.5186
     17 O2          2.9931    7.2653   -1.3945 O.2       1 <0>        -0.5423
     18 N2          2.4386    9.3412   -0.8420 N.am      1 <0>        -0.5283
     19 N3          3.6636    9.8393   -1.3048 N.am      1 <0>        -0.5360
     20 C14         3.9097   11.1639   -1.2677 C.2       1 <0>         0.5176
     21 O3          3.0707   11.9246   -0.8337 O.2       1 <0>        -0.5307
     22 C15         5.2273   11.6997   -1.7656 C.3       1 <0>        -0.1252
     23 C16         5.2491   13.2220   -1.6131 C.3       1 <0>        -0.0316
     24 C17         4.1088   13.8328   -2.4301 C.3       1 <0>        -0.1146
     25 C18         4.1306   15.3550   -2.2776 C.3       1 <0>        -0.0836
     26 C19         5.4683   15.8990   -2.7830 C.3       1 <0>        -0.1103
     27 C20         6.6087   15.2882   -1.9661 C.3       1 <0>        -0.0841
     28 C21         6.5868   13.7660   -2.1185 C.3       1 <0>        -0.1040
     29 C22         6.4332   15.6556   -0.4912 C.3       1 <0>        -0.1103
     30 C23         5.0955   15.1116    0.0142 C.3       1 <0>        -0.0835
     31 C24         3.9551   15.7224   -0.8028 C.3       1 <0>        -0.1065
     32 C25         5.0736   13.5894   -0.1383 C.3       1 <0>        -0.1144
     33 H2         -3.7782    0.9797   -2.4240 H         1 <0>         0.0684
     34 H3         -4.4181    2.6486   -2.6029 H         1 <0>         0.0732
     35 H4         -4.1975    1.9420   -0.9663 H         1 <0>         0.0733
     36 H5         -1.5207    0.7784   -2.8052 H         1 <0>         0.1277
     37 H6          0.7763    1.6562   -2.7457 H         1 <0>         0.1300
     38 H7          1.2166    3.9028   -1.8459 H         1 <0>         0.1257
     39 H8         -2.9718    4.3880   -1.0615 H         1 <0>         0.1361
     40 H9          1.5013    5.5201   -1.1935 H         1 <0>         0.4313
     41 H10         1.3436    8.3781    1.6354 H         1 <0>         0.0832
     42 H11        -0.1519    6.8851    2.9517 H         1 <0>         0.0538
     43 H12        -0.5316    5.9534    1.4636 H         1 <0>         0.0608
     44 H13        -1.0429    7.6697    1.6036 H         1 <0>         0.0647
     45 H14         2.2675    6.3199    2.6883 H         1 <0>         0.0607
     46 H15         3.1160    6.6982    1.1509 H         1 <0>         0.0554
     47 H16         1.8879    5.3882    1.2002 H         1 <0>         0.0604
     48 H17         1.6777   10.0312   -0.4484 H         1 <0>         0.4602
     49 H18         4.4245    9.1493   -1.6984 H         1 <0>         0.4562
     50 H19         6.0472   11.2605   -1.1783 H         1 <0>         0.0990
     51 H20         5.3534   11.4355   -2.8259 H         1 <0>         0.0989
     52 H21         4.2351   13.5687   -3.4904 H         1 <0>         0.0522
     53 H22         3.1470   13.4416   -2.0668 H         1 <0>         0.0910
     54 H23         3.3107   15.7941   -2.8649 H         1 <0>         0.0664
     55 H24         5.5945   15.6349   -3.8433 H         1 <0>         0.0599
     56 H25         5.4840   16.9934   -2.6734 H         1 <0>         0.0603
     57 H26         7.5704   15.6793   -2.3296 H         1 <0>         0.0688
     58 H27         7.4066   13.3269   -1.5311 H         1 <0>         0.0627
     59 H28         6.7130   13.5018   -3.1788 H         1 <0>         0.0626
     60 H29         7.2531   15.2164    0.0961 H         1 <0>         0.0599
     61 H30         6.4490   16.7500   -0.3815 H         1 <0>         0.0603
     62 H31         4.9694   15.3757    1.0745 H         1 <0>         0.0664
     63 H32         3.9708   16.8168   -0.6932 H         1 <0>         0.0575
     64 H33         2.9933   15.3313   -0.4394 H         1 <0>         0.0635
     65 H34         4.1118   13.1983    0.2250 H         1 <0>         0.0911
     66 H35         5.8934   13.1502    0.4491 H         1 <0>         0.0523
@<TRIPOS>BOND
     1    1    2 1
     2    1   33 1
     3    1   34 1
     4    1   35 1
     5    2    7 ar
     6    2    3 ar
     7    3    4 ar
     8    3   36 1
     9    4    5 ar
    10    4   37 1
    11    5    6 ar
    12    5   38 1
    13    6    7 ar
    14    6    8 1
    15    7   39 1
    16    8    9 2
    17    8   10 am
    18   10   11 1
    19   10   40 1
    20   11   12 1
    21   11   13 1
    22   11   16 1
    23   13   14 1
    24   13   15 1
    25   13   41 1
    26   14   42 1
    27   14   43 1
    28   14   44 1
    29   15   45 1
    30   15   46 1
    31   15   47 1
    32   16   17 2
    33   16   18 am
    34   18   19 1
    35   18   48 1
    36   19   20 am
    37   19   49 1
    38   20   21 2
    39   20   22 1
    40   22   23 1
    41   22   50 1
    42   22   51 1
    43   23   28 1
    44   23   32 1
    45   23   24 1
    46   24   25 1
    47   24   52 1
    48   24   53 1
    49   25   31 1
    50   25   26 1
    51   25   54 1
    52   26   27 1
    53   26   55 1
    54   26   56 1
    55   27   28 1
    56   27   29 1
    57   27   57 1
    58   28   58 1
    59   28   59 1
    60   29   30 1
    61   29   60 1
    62   29   61 1
    63   30   31 1
    64   30   32 1
    65   30   62 1
    66   31   63 1
    67   31   64 1
    68   32   65 1
    69   32   66 1
@<TRIPOS>MOLECULE
ZINC45818831
   55    58     0     0     0
SMALL
USER_CHARGES

@<TRIPOS>ATOM
      1 C1         -0.0164    1.3567    0.0095 C.ar      1 <0>        -0.1182
      2 C2          1.1685    2.0906    0.0021 C.ar      1 <0>        -0.1133
      3 C3          2.3785    1.4679   -0.0132 C.ar      1 <0>        -0.1082
      4 C4          2.4378    0.0637   -0.0214 C.ar      1 <0>        -0.0332
      5 C5          1.2328   -0.6827   -0.0134 C.ar      1 <0>        -0.0518
      6 C6          0.0021   -0.0041    0.0020 C.ar      1 <0>        -0.1039
      7 C7          1.2920   -2.0865   -0.0210 C.ar      1 <0>        -0.1029
      8 C8          2.5022   -2.7094   -0.0359 C.ar      1 <0>        -0.1147
      9 C9          3.6867   -1.9757   -0.0433 C.ar      1 <0>        -0.1007
     10 C10         3.6681   -0.6146   -0.0367 C.ar      1 <0>        -0.0583
     11 C11         4.9603    0.1606   -0.0459 C.3       1 <0>        -0.1019
     12 C12         5.3414    0.5186    1.3675 C.2       1 <0>         0.5184
     13 O1          4.6334    0.1777    2.2913 O.2       1 <0>        -0.5212
     14 N1          6.4691    1.2175    1.6049 N.am      1 <0>        -0.7226
     15 C13         6.8396    1.5655    2.9789 C.3       1 <0>         0.1113
     16 C14         8.1319    2.3407    2.9698 C.2       1 <0>         0.5121
     17 O2          8.6886    2.5791    1.9190 O.2       1 <0>        -0.5351
     18 N2          8.6689    2.7691    4.1293 N.am      1 <0>        -0.5170
     19 N3          9.8703    3.4899    4.1207 N.am      1 <0>        -0.5257
     20 C15        10.4074    3.9183    5.2802 C.2       1 <0>         0.5154
     21 O3          9.8507    3.6799    6.3310 O.2       1 <0>        -0.5190
     22 C16        11.6996    4.6935    5.2711 C.3       1 <0>        -0.0917
     23 C17        12.0807    5.0515    6.6845 C.ar      1 <0>        -0.0627
     24 C18        11.7313    6.2611    7.2018 C.ar      1 <0>        -0.0963
     25 C19        12.0748    6.6097    8.5064 C.ar      1 <0>        -0.1162
     26 C20        12.7703    5.7509    9.3013 C.ar      1 <0>        -0.0991
     27 C21        13.1485    4.4933    8.8021 C.ar      1 <0>        -0.0525
     28 C22        12.7936    4.1362    7.4770 C.ar      1 <0>        -0.0317
     29 C23        13.1669    2.8757    6.9797 C.ar      1 <0>        -0.1106
     30 C24        13.8570    2.0150    7.7765 C.ar      1 <0>        -0.1109
     31 C25        14.2003    2.3636    9.0816 C.ar      1 <0>        -0.1180
     32 C26        13.8674    3.5803    9.5926 C.ar      1 <0>        -0.1026
     33 H1         -0.9634    1.8756    0.0259 H         1 <0>         0.1232
     34 H2          1.1258    3.1698    0.0084 H         1 <0>         0.1223
     35 H3          3.2883    2.0497   -0.0195 H         1 <0>         0.1211
     36 H4         -0.9241   -0.5595    0.0082 H         1 <0>         0.1273
     37 H5          0.3820   -2.6682   -0.0147 H         1 <0>         0.1275
     38 H6          2.5450   -3.7886   -0.0417 H         1 <0>         0.1247
     39 H7          4.6338   -2.4947   -0.0548 H         1 <0>         0.1222
     40 H8          5.7467   -0.4491   -0.4909 H         1 <0>         0.1093
     41 H9          4.8331    1.0722   -0.6299 H         1 <0>         0.1080
     42 H10         7.0354    1.4901    0.8661 H         1 <0>         0.4136
     43 H11         6.0533    2.1752    3.4239 H         1 <0>         0.1072
     44 H12         6.9669    0.6539    3.5629 H         1 <0>         0.1073
     45 H13         8.2237    2.5785    4.9697 H         1 <0>         0.4363
     46 H14        10.3155    3.6805    3.2803 H         1 <0>         0.4333
     47 H15        12.4860    4.0838    4.8261 H         1 <0>         0.1125
     48 H16        11.5724    5.6051    4.6871 H         1 <0>         0.1141
     49 H17        11.1798    6.9613    6.5919 H         1 <0>         0.1232
     50 H18        11.7853    7.5759    8.8925 H         1 <0>         0.1258
     51 H19        13.0302    6.0350   10.3103 H         1 <0>         0.1284
     52 H20        12.9072    2.5916    5.9707 H         1 <0>         0.1207
     53 H21        14.1426    1.0470    7.3919 H         1 <0>         0.1228
     54 H22        14.7479    1.6617    9.6931 H         1 <0>         0.1239
     55 H23        14.1409    3.8369   10.6054 H         1 <0>         0.1281
@<TRIPOS>BOND
     1    1    6 ar
     2    1    2 ar
     3    1   33 1
     4    2    3 ar
     5    2   34 1
     6    3    4 ar
     7    3   35 1
     8    4   10 ar
     9    4    5 ar
    10    5    6 ar
    11    5    7 ar
    12    6   36 1
    13    7    8 ar
    14    7   37 1
    15    8    9 ar
    16    8   38 1
    17    9   10 ar
    18    9   39 1
    19   10   11 1
    20   11   12 1
    21   11   40 1
    22   11   41 1
    23   12   13 2
    24   12   14 am
    25   14   15 1
    26   14   42 1
    27   15   16 1
    28   15   43 1
    29   15   44 1
    30   16   17 2
    31   16   18 am
    32   18   19 1
    33   18   45 1
    34   19   20 am
    35   19   46 1
    36   20   21 2
    37   20   22 1
    38   22   23 1
    39   22   47 1
    40   22   48 1
    41   23   28 ar
    42   23   24 ar
    43   24   25 ar
    44   24   49 1
    45   25   26 ar
    46   25   50 1
    47   26   27 ar
    48   26   51 1
    49   27   32 ar
    50   27   28 ar
    51   28   29 ar
    52   29   30 ar
    53   29   52 1
    54   30   31 ar
    55   30   53 1
    56   31   32 ar
    57   31   54 1
    58   32   55 1
@<TRIPOS>MOLECULE
ZINC57315891
   48    50     0     0     0
SMALL
USER_CHARGES

@<TRIPOS>ATOM
      1 C1          0.3633    0.9331    0.1046 C.3       1 <0>        -0.1412
      2 C2         -0.8667    1.3322   -0.7132 C.3       1 <0>        -0.1366
      3 C3         -1.9719    0.3353   -0.4774 C.2       1 <0>         0.5047
      4 O1         -1.7935   -0.6020    0.2710 O.2       1 <0>        -0.4638
      5 N1         -3.1587    0.4856   -1.0982 N.am      1 <0>        -0.6206
      6 C4         -4.1752   -0.4313   -0.8813 C.2       1 <0>         0.3741
      7 N2         -4.1742   -1.4942   -0.1122 N.2       1 <0>        -0.5105
      8 C5         -5.2475   -2.3075    0.0049 C.ar      1 <0>         0.1170
      9 C6         -5.3755   -3.4751    0.7925 C.ar      1 <0>        -0.0627
     10 C7         -6.5320   -4.1897    0.8006 C.ar      1 <0>        -0.0975
     11 C8         -7.6329   -3.8044    0.0387 C.ar      1 <0>         0.1198
     12 C9         -7.5458   -2.6628   -0.7475 C.ar      1 <0>        -0.0033
     13 C10        -6.3794   -1.9397   -0.7579 C.ar      1 <0>        -0.1477
     14 S1         -5.8232   -0.4619   -1.5722 S.3       1 <0>         0.0226
     15 N3         -8.8125   -4.5590    0.0648 N.pl3     1 <0>        -0.6153
     16 C11       -10.0052   -3.9414    0.1769 C.2       1 <0>         0.5100
     17 S2        -10.0870   -2.2314    0.1779 S.2       1 <0>        -0.4815
     18 N4        -11.1336   -4.6701    0.2883 N.am      1 <0>        -0.6383
     19 C12       -12.3263   -4.0525    0.4005 C.2       1 <0>         0.5358
     20 O2        -12.3843   -2.8387    0.4011 O.2       1 <0>        -0.3998
     21 C13       -13.5634   -4.8515    0.5226 C.ar      1 <0>        -0.1402
     22 C14       -13.4997   -6.2463    0.5279 C.ar      1 <0>        -0.0918
     23 C15       -14.6583   -6.9860    0.6422 C.ar      1 <0>        -0.1214
     24 C16       -15.8818   -6.3487    0.7514 C.ar      1 <0>        -0.0538
     25 C17       -15.9521   -4.9670    0.7463 C.ar      1 <0>        -0.0902
     26 C18       -14.8003   -4.2150    0.6389 C.ar      1 <0>        -0.0486
     27 C19       -17.2890   -4.2818    0.8652 C.3       1 <0>        -0.1214
     28 C20       -17.1434   -7.1634    0.8759 C.3       1 <0>        -0.1261
     29 H1          1.1627    1.6541   -0.0660 H         1 <0>         0.0682
     30 H2          0.1064    0.9192    1.1638 H         1 <0>         0.0645
     31 H3          0.6969   -0.0585   -0.2015 H         1 <0>         0.0643
     32 H4         -1.2003    2.3238   -0.4072 H         1 <0>         0.1022
     33 H5         -0.6099    1.3462   -1.7725 H         1 <0>         0.1020
     34 H6         -3.3015    1.2353   -1.6969 H         1 <0>         0.4303
     35 H7         -4.5424   -3.8040    1.3960 H         1 <0>         0.1406
     36 H8         -6.5988   -5.0775    1.4119 H         1 <0>         0.1367
     37 H9         -8.3879   -2.3474   -1.3457 H         1 <0>         0.1571
     38 H10        -8.7711   -5.5261    0.0023 H         1 <0>         0.4109
     39 H11       -11.0872   -5.6390    0.2878 H         1 <0>         0.4099
     40 H12       -12.5455   -6.7449    0.4424 H         1 <0>         0.1217
     41 H13       -14.6105   -8.0649    0.6461 H         1 <0>         0.1319
     42 H14       -14.8561   -3.1365    0.6399 H         1 <0>         0.1409
     43 H15       -17.5159   -4.1080    1.9171 H         1 <0>         0.0759
     44 H16       -17.2567   -3.3283    0.3381 H         1 <0>         0.0714
     45 H17       -18.0614   -4.9135    0.4265 H         1 <0>         0.0746
     46 H18       -17.3520   -7.3516    1.9291 H         1 <0>         0.0780
     47 H19       -17.9751   -6.6154    0.4331 H         1 <0>         0.0763
     48 H20       -17.0158   -8.1127    0.3556 H         1 <0>         0.0706
@<TRIPOS>BOND
     1    1    2 1
     2    1   29 1
     3    1   30 1
     4    1   31 1
     5    2    3 1
     6    2   32 1
     7    2   33 1
     8    3    4 2
     9    3    5 am
    10    5    6 1
    11    5   34 1
    12    6   14 1
    13    6    7 2
    14    7    8 1
    15    8   13 ar
    16    8    9 ar
    17    9   10 ar
    18    9   35 1
    19   10   11 ar
    20   10   36 1
    21   11   12 ar
    22   11   15 1
    23   12   13 ar
    24   12   37 1
    25   13   14 1
    26   15   16 1
    27   15   38 1
    28   16   17 2
    29   16   18 1
    30   18   19 am
    31   18   39 1
    32   19   20 2
    33   19   21 1
    34   21   26 ar
    35   21   22 ar
    36   22   23 ar
    37   22   40 1
    38   23   24 ar
    39   23   41 1
    40   24   25 ar
    41   24   28 1
    42   25   26 ar
    43   25   27 1
    44   26   42 1
    45   27   43 1
    46   27   44 1
    47   27   45 1
    48   28   46 1
    49   28   47 1
    50   28   48 1
@<TRIPOS>MOLECULE
ZINC00690882
   59    62     0     0     0
SMALL
USER_CHARGES
2-amino-1-dimethylamino-4-(4-ethylphenyl)-5-oxo-7-phenyl-4,6,7,8-tetrahydroquinoline-3-carbonitrile
@<TRIPOS>ATOM
      1 C1          0.5701   -4.7320    0.9032 C.3       1 <0>        -0.1466
      2 C2          0.0949   -4.3723   -0.5059 C.3       1 <0>        -0.0848
      3 C3          0.0196   -2.8735   -0.6434 C.ar      1 <0>        -0.0853
      4 C4          1.1209   -2.1636   -1.0837 C.ar      1 <0>        -0.1174
      5 C5          1.0520   -0.7887   -1.2094 C.ar      1 <0>        -0.0982
      6 C6         -0.1184   -0.1237   -0.8947 C.ar      1 <0>        -0.0709
      7 C7         -1.2181   -0.8331   -0.4494 C.ar      1 <0>        -0.1016
      8 C8         -1.1508   -2.2085   -0.3287 C.ar      1 <0>        -0.1218
      9 C9         -0.1934    1.3752   -1.0313 C.3       1 <0>         0.1033
     10 H1          0.7659    1.7499   -1.3882 H         1 <0>         0.0896
     11 C10        -0.4882    1.9773    0.3109 C.2       1 <0>        -0.2543
     12 C11        -1.7332    2.4169    0.6257 C.2       1 <0>         0.5115
     13 N1         -2.7501    2.3236   -0.2945 N.pl3     1 <0>        -0.3870
     14 C12        -2.4715    2.1776   -1.6266 C.2       1 <0>         0.1900
     15 C13        -1.2651    1.7275   -2.0319 C.2       1 <0>        -0.2423
     16 C14        -0.9715    1.5714   -3.3978 C.2       1 <0>         0.4013
     17 O1          0.1292    1.1781   -3.7300 O.2       1 <0>        -0.4533
     18 C15        -1.9944    1.8826   -4.4559 C.3       1 <0>        -0.1498
     19 C16        -3.3952    1.6638   -3.8743 C.3       1 <0>        -0.0365
     20 H2         -3.5239    0.6153   -3.6055 H         1 <0>         0.0931
     21 C17        -3.5433    2.5367   -2.6262 C.3       1 <0>        -0.1074
     22 C18        -4.4337    2.0565   -4.8933 C.ar      1 <0>        -0.0837
     23 C19        -4.4636    3.3472   -5.3875 C.ar      1 <0>        -0.1146
     24 C20        -5.4138    3.7064   -6.3251 C.ar      1 <0>        -0.1158
     25 C21        -6.3393    2.7773   -6.7621 C.ar      1 <0>        -0.1178
     26 C22        -6.3124    1.4880   -6.2644 C.ar      1 <0>        -0.1159
     27 C23        -5.3598    1.1277   -5.3297 C.ar      1 <0>        -0.1107
     28 N2         -4.0493    2.3765    0.1240 N.3       1 <0>        -0.3061
     29 C24        -4.7016    3.6088   -0.3384 C.3       1 <0>        -0.0348
     30 C25        -4.7934    1.1894   -0.3176 C.3       1 <0>        -0.0146
     31 N3         -1.9776    2.9560    1.8657 N.pl3     1 <0>        -0.8432
     32 C26         0.5619    2.0901    1.2780 C.1       1 <0>         0.2765
     33 N4          1.3949    2.1795    2.0452 N.1       1 <0>        -0.4530
     34 H3          0.6246   -5.8161    1.0027 H         1 <0>         0.0568
     35 H4          1.5566   -4.3013    1.0750 H         1 <0>         0.0554
     36 H5         -0.1324   -4.3348    1.6360 H         1 <0>         0.0544
     37 H6         -0.8915   -4.8030   -0.6777 H         1 <0>         0.0691
     38 H7          0.7974   -4.7695   -1.2387 H         1 <0>         0.0701
     39 H8          2.0354   -2.6831   -1.3292 H         1 <0>         0.1184
     40 H9          1.9125   -0.2340   -1.5531 H         1 <0>         0.1202
     41 H10        -2.1311   -0.3131   -0.1994 H         1 <0>         0.1103
     42 H11        -2.0111   -2.7631    0.0156 H         1 <0>         0.1154
     43 H12        -1.8561    1.2789   -5.2410 H         1 <0>         0.0907
     44 H13        -1.8892    2.9200   -4.7733 H         1 <0>         0.1030
     45 H14        -4.5246    2.3706   -2.1816 H         1 <0>         0.1040
     46 H15        -3.4437    3.5860   -2.9039 H         1 <0>         0.1057
     47 H16        -3.7428    4.0741   -5.0433 H         1 <0>         0.1220
     48 H17        -5.4351    4.7139   -6.7137 H         1 <0>         0.1237
     49 H18        -7.0838    3.0589   -7.4921 H         1 <0>         0.1228
     50 H19        -7.0357    0.7622   -6.6056 H         1 <0>         0.1239
     51 H20        -5.3390    0.1205   -4.9405 H         1 <0>         0.1232
     52 H21        -4.5488    3.7200   -1.4119 H         1 <0>         0.0687
     53 H22        -5.7696    3.5560   -0.1270 H         1 <0>         0.0940
     54 H23        -4.2704    4.4649    0.1805 H         1 <0>         0.0815
     55 H24        -4.4428    0.3156    0.2317 H         1 <0>         0.0857
     56 H25        -5.8567    1.3355   -0.1274 H         1 <0>         0.0952
     57 H26        -4.6329    1.0361   -1.3848 H         1 <0>         0.0613
     58 H27        -2.8255    3.3909    2.0470 H         1 <0>         0.4100
     59 H28        -1.3023    2.9016    2.5599 H         1 <0>         0.4167
@<TRIPOS>BOND
     1    1    2 1
     2    1   34 1
     3    1   35 1
     4    1   36 1
     5    2    3 1
     6    2   37 1
     7    2   38 1
     8    3    8 ar
     9    3    4 ar
    10    4    5 ar
    11    4   39 1
    12    5    6 ar
    13    5   40 1
    14    6    7 ar
    15    6    9 1
    16    7    8 ar
    17    7   41 1
    18    8   42 1
    19    9   10 1
    20    9   15 1
    21    9   11 1
    22   11   12 2
    23   11   32 1
    24   12   13 1
    25   12   31 1
    26   13   14 1
    27   13   28 1
    28   14   21 1
    29   14   15 2
    30   15   16 1
    31   16   17 2
    32   16   18 1
    33   18   19 1
    34   18   43 1
    35   18   44 1
    36   19   20 1
    37   19   21 1
    38   19   22 1
    39   21   45 1
    40   21   46 1
    41   22   27 ar
    42   22   23 ar
    43   23   24 ar
    44   23   47 1
    45   24   25 ar
    46   24   48 1
    47   25   26 ar
    48   25   49 1
    49   26   27 ar
    50   26   50 1
    51   27   51 1
    52   28   29 1
    53   28   30 1
    54   29   52 1
    55   29   53 1
    56   29   54 1
    57   30   55 1
    58   30   56 1
    59   30   57 1
    60   31   58 1
    61   31   59 1
    62   32   33 3
@<TRIPOS>MOLECULE
ZINC09072222
   49    52     0     0     0
SMALL
USER_CHARGES
2-benzoylamino-N-(3-fluoro-4-methyl-phenyl)-4,5,6,7-tetrahydrobenzothiazole-4-carboxamide
@<TRIPOS>ATOM
      1 C1         -3.8598    5.1814    5.9189 C.3       1 <0>        -0.1131
      2 C2         -3.0616    4.6913    4.7383 C.ar      1 <0>        -0.1366
      3 C3         -3.0793    5.4000    3.5512 C.ar      1 <0>        -0.0728
      4 C4         -2.3448    4.9565    2.4690 C.ar      1 <0>        -0.1529
      5 C5         -1.5959    3.7909    2.5691 C.ar      1 <0>         0.1720
      6 C6         -1.5784    3.0803    3.7614 C.ar      1 <0>        -0.1559
      7 C7         -2.3114    3.5320    4.8444 C.ar      1 <0>         0.1160
      8 F1         -2.2957    2.8418    6.0057 F         1 <0>        -0.1347
      9 N1         -0.8558    3.3370    1.4719 N.am      1 <0>        -0.6590
     10 C8         -0.7204    2.0144    1.2511 C.2       1 <0>         0.5290
     11 O1         -1.1687    1.2175    2.0479 O.2       1 <0>        -0.5159
     12 C9         -0.0118    1.5256    0.0141 C.3       1 <0>        -0.0209
     13 H1         -0.5277    1.8915   -0.8737 H         1 <0>         0.1167
     14 C10         0.0053   -0.0039    0.0034 C.3       1 <0>        -0.1034
     15 C11         0.8793   -0.5127   -1.1465 C.3       1 <0>        -0.1132
     16 C12         2.3498   -0.2037   -0.8230 C.3       1 <0>        -0.0356
     17 C13         2.4400    1.2135   -0.3688 C.2       1 <0>        -0.2187
     18 C14         1.4259    2.0320    0.0148 C.2       1 <0>         0.0772
     19 N2          1.7758    3.2637    0.3771 N.2       1 <0>        -0.5533
     20 C15         3.0289    3.6691    0.3666 C.2       1 <0>         0.2862
     21 S1          3.8659    2.2514   -0.1921 S.3       1 <0>         0.1872
     22 N3          3.5481    4.9099    0.7128 N.am      1 <0>        -0.6070
     23 C16         4.8753    5.1309    0.6341 C.2       1 <0>         0.5647
     24 O2          5.6180    4.2441    0.2602 O.2       1 <0>        -0.4942
     25 C17         5.4278    6.4512    1.0026 C.ar      1 <0>        -0.1388
     26 C18         4.5771    7.4735    1.4269 C.ar      1 <0>        -0.0827
     27 C19         5.1000    8.7017    1.7753 C.ar      1 <0>        -0.1245
     28 C20         6.4631    8.9251    1.6934 C.ar      1 <0>        -0.0828
     29 C21         7.3111    7.9181    1.2676 C.ar      1 <0>        -0.1251
     30 C22         6.8020    6.6834    0.9222 C.ar      1 <0>        -0.0505
     31 H2         -3.2450    5.8510    6.5203 H         1 <0>         0.0731
     32 H3         -4.7407    5.7169    5.5648 H         1 <0>         0.0722
     33 H4         -4.1710    4.3309    6.5254 H         1 <0>         0.0693
     34 H5         -3.6649    6.3039    3.4715 H         1 <0>         0.1369
     35 H6         -2.3560    5.5136    1.5438 H         1 <0>         0.1321
     36 H7         -0.9932    2.1764    3.8437 H         1 <0>         0.1495
     37 H8         -0.4402    3.9742    0.8701 H         1 <0>         0.4212
     38 H9          0.4056   -0.3674    0.9498 H         1 <0>         0.0801
     39 H10        -1.0111   -0.3758   -0.1257 H         1 <0>         0.0839
     40 H11         0.7477   -1.5890   -1.2569 H         1 <0>         0.0839
     41 H12         0.5933   -0.0126   -2.0718 H         1 <0>         0.0719
     42 H13         2.6991   -0.8664   -0.0312 H         1 <0>         0.0880
     43 H14         2.9597   -0.3431   -1.7156 H         1 <0>         0.0861
     44 H15         2.9555    5.6175    1.0112 H         1 <0>         0.4242
     45 H16         3.5126    7.3018    1.4870 H         1 <0>         0.1269
     46 H17         4.4436    9.4918    2.1087 H         1 <0>         0.1342
     47 H18         6.8668    9.8897    1.9633 H         1 <0>         0.1325
     48 H19         8.3741    8.0991    1.2060 H         1 <0>         0.1357
     49 H20         7.4651    5.8980    0.5908 H         1 <0>         0.1407
@<TRIPOS>BOND
     1    1    2 1
     2    1   31 1
     3    1   32 1
     4    1   33 1
     5    2    7 ar
     6    2    3 ar
     7    3    4 ar
     8    3   34 1
     9    4    5 ar
    10    4   35 1
    11    5    6 ar
    12    5    9 1
    13    6    7 ar
    14    6   36 1
    15    7    8 1
    16    9   10 am
    17    9   37 1
    18   10   11 2
    19   10   12 1
    20   12   13 1
    21   12   18 1
    22   12   14 1
    23   14   15 1
    24   14   38 1
    25   14   39 1
    26   15   16 1
    27   15   40 1
    28   15   41 1
    29   16   17 1
    30   16   42 1
    31   16   43 1
    32   17   21 1
    33   17   18 2
    34   18   19 1
    35   19   20 2
    36   20   21 1
    37   20   22 1
    38   22   23 am
    39   22   44 1
    40   23   24 2
    41   23   25 1
    42   25   30 ar
    43   25   26 ar
    44   26   27 ar
    45   26   45 1
    46   27   28 ar
    47   27   46 1
    48   28   29 ar
    49   28   47 1
    50   29   30 ar
    51   29   48 1
    52   30   49 1
@<TRIPOS>MOLECULE
ZINC21226613
   56    60     0     0     0
SMALL
USER_CHARGES
(6R,9S)-9-(4-ethoxyphenyl)-6-(2-pyridyl)-5,6,8,9,10,11-hexahydrobenzo[c][1,5]benzodiazepin-7-one
@<TRIPOS>ATOM
      1 C1         -7.8729   11.9084    4.2991 C.3       1 <0>        -0.1555
      2 C2         -7.1289   10.5891    4.0822 C.3       1 <0>         0.0525
      3 O1         -7.7402    9.8682    3.0105 O.3       1 <0>        -0.3163
      4 C3         -7.1965    8.6655    2.6868 C.ar      1 <0>         0.1306
      5 C4         -7.7398    7.9121    1.6563 C.ar      1 <0>        -0.1501
      6 C5         -7.1850    6.6900    1.3289 C.ar      1 <0>        -0.0712
      7 C6         -6.0891    6.2176    2.0273 C.ar      1 <0>        -0.1199
      8 C7         -5.5493    6.9640    3.0584 C.ar      1 <0>        -0.0724
      9 C8         -6.0969    8.1892    3.3860 C.ar      1 <0>        -0.2060
     10 C9         -5.4859    4.8842    1.6680 C.3       1 <0>        -0.0321
     11 H1         -6.0780    4.4633    0.8420 H         1 <0>         0.0906
     12 C10        -4.0279    5.0708    1.2511 C.3       1 <0>        -0.1006
     13 C11        -3.4160    3.7253    0.8976 C.2       1 <0>         0.2837
     14 C12        -3.8044    2.6119    1.5413 C.2       1 <0>        -0.3025
     15 C13        -3.2613    1.2214    1.3138 C.3       1 <0>         0.3002
     16 H2         -4.1150    0.5552    1.1207 H         1 <0>         0.0955
     17 N1         -2.4352    1.0858    0.1326 N.pl3     1 <0>        -0.7824
     18 C14        -1.2181    1.7583    0.0173 C.ar      1 <0>         0.1828
     19 C15        -0.0126    1.0758    0.0080 C.ar      1 <0>        -0.1257
     20 C16         1.1730    1.7903    0.0005 C.ar      1 <0>        -0.1107
     21 C17         1.1564    3.1733    0.0028 C.ar      1 <0>        -0.1230
     22 C18        -0.0471    3.8576   -0.0079 C.ar      1 <0>        -0.1136
     23 C19        -1.2335    3.1448   -0.0105 C.ar      1 <0>         0.1330
     24 N2         -2.4743    3.7675   -0.0785 N.pl3     1 <0>        -0.6966
     25 C20        -2.4441    0.8251    2.5163 C.ar      1 <0>         0.1344
     26 C21        -2.7445   -0.3430    3.1916 C.ar      1 <0>        -0.1465
     27 C22        -1.9834   -0.7011    4.2935 C.ar      1 <0>        -0.0796
     28 C23        -0.9506    0.1383    4.6832 C.ar      1 <0>        -0.1769
     29 C24        -0.7126    1.2927    3.9620 C.ar      1 <0>         0.0943
     30 N3         -1.4542    1.5993    2.9154 N.ar      1 <0>        -0.4613
     31 C25        -4.8138    2.6769    2.5307 C.2       1 <0>         0.4005
     32 O2         -5.1306    1.6573    3.1116 O.2       1 <0>        -0.4812
     33 C26        -5.5068    3.9570    2.8889 C.3       1 <0>        -0.1591
     34 H3         -7.4023   12.4634    5.1241 H         1 <0>         0.0802
     35 H4         -8.9235   11.7000    4.5496 H         1 <0>         0.0676
     36 H5         -7.8277   12.5103    3.3795 H         1 <0>         0.0675
     37 H6         -6.0783   10.7975    3.8317 H         1 <0>         0.0628
     38 H7         -7.1741    9.9872    5.0018 H         1 <0>         0.0630
     39 H8         -8.5955    8.2808    1.1103 H         1 <0>         0.1312
     40 H9         -7.6073    6.1033    0.5265 H         1 <0>         0.1303
     41 H10        -4.6962    6.5907    3.6055 H         1 <0>         0.1233
     42 H11        -5.6722    8.7739    4.1885 H         1 <0>         0.1274
     43 H12        -3.9792    5.7336    0.3745 H         1 <0>         0.0866
     44 H13        -3.4635    5.5195    2.0818 H         1 <0>         0.0951
     45 H14        -2.7633    0.4424   -0.6971 H         1 <0>         0.4143
     46 H15         0.0021   -0.0041    0.0020 H         1 <0>         0.1163
     47 H16         2.1165    1.2647   -0.0068 H         1 <0>         0.1182
     48 H17         2.0866    3.7219    0.0126 H         1 <0>         0.1209
     49 H18        -0.0600    4.9375   -0.0138 H         1 <0>         0.1212
     50 H19        -2.6689    4.3248   -1.0067 H         1 <0>         0.4242
     51 H20        -3.5596   -0.9706    2.8627 H         1 <0>         0.1297
     52 H21        -2.1928   -1.6098    4.8384 H         1 <0>         0.1308
     53 H22        -0.3402   -0.1070    5.5398 H         1 <0>         0.1300
     54 H23         0.0899    1.9516    4.2590 H         1 <0>         0.1486
     55 H24        -4.9856    4.4426    3.7271 H         1 <0>         0.0982
     56 H25        -6.5487    3.7509    3.1750 H         1 <0>         0.0972
@<TRIPOS>BOND
     1    1    2 1
     2    1   34 1
     3    1   35 1
     4    1   36 1
     5    2    3 1
     6    2   37 1
     7    2   38 1
     8    3    4 1
     9    4    9 ar
    10    4    5 ar
    11    5    6 ar
    12    5   39 1
    13    6    7 ar
    14    6   40 1
    15    7    8 ar
    16    7   10 1
    17    8    9 ar
    18    8   41 1
    19    9   42 1
    20   10   11 1
    21   10   33 1
    22   10   12 1
    23   12   13 1
    24   12   43 1
    25   12   44 1
    26   13   24 1
    27   13   14 2
    28   14   15 1
    29   14   31 1
    30   15   16 1
    31   15   17 1
    32   15   25 1
    33   17   18 1
    34   17   45 1
    35   18   23 ar
    36   18   19 ar
    37   19   20 ar
    38   19   46 1
    39   20   21 ar
    40   20   47 1
    41   21   22 ar
    42   21   48 1
    43   22   23 ar
    44   22   49 1
    45   23   24 1
    46   24   50 1
    47   25   30 ar
    48   25   26 ar
    49   26   27 ar
    50   26   51 1
    51   27   28 ar
    52   27   52 1
    53   28   29 ar
    54   28   53 1
    55   29   30 ar
    56   29   54 1
    57   31   32 2
    58   31   33 1
    59   33   55 1
    60   33   56 1
@<TRIPOS>MOLECULE
ZINC39508899
   58    61     0     0     0
SMALL
USER_CHARGES

@<TRIPOS>ATOM
      1 C1         -0.1855    1.4661   -0.8068 C.3       1 <0>        -0.1420
      2 C2         -0.1280   -0.0558   -0.6603 C.3       1 <0>        -0.5940
      3 C3          1.0418   -0.4367    0.2493 C.3       1 <0>        -0.1404
      4 S1         -1.6789   -0.6522    0.0675 S.o2      1 <0>         2.5817
      5 O1         -1.8508   -0.1065    1.3683 O.2       1 <0>        -0.9052
      6 O2         -2.7265   -0.5855   -0.8903 O.2       1 <0>        -0.9562
      7 N1         -1.4369   -2.2713    0.3172 N.pl3     1 <0>        -0.9896
      8 C4         -1.1736   -3.2789   -0.7306 C.3       1 <0>         0.1198
      9 C5         -1.6300   -4.6247   -0.1116 C.3       1 <0>        -0.0541
     10 H1         -2.7091   -4.7498   -0.2019 H         1 <0>         0.1021
     11 C6         -1.2132   -4.4455    1.3745 C.3       1 <0>        -0.1062
     12 C7         -1.4408   -2.9473    1.6108 C.3       1 <0>         0.1835
     13 C8         -0.3679   -2.3696    2.5505 C.3       1 <0>        -0.1469
     14 C9         -1.0412   -1.1263    3.1719 C.3       1 <0>        -0.1169
     15 C10        -2.5608   -1.3425    3.0541 C.3       1 <0>        -0.0582
     16 H2         -3.0046   -0.5515    2.4496 H         1 <0>         0.1376
     17 C11        -2.7610   -2.7101    2.3650 C.3       1 <0>        -0.1328
     18 C12        -3.1877   -1.3575    4.4245 C.ar      1 <0>        -0.0934
     19 C13        -2.7705   -2.2791    5.3656 C.ar      1 <0>        -0.1052
     20 C14        -3.3455   -2.2936    6.6227 C.ar      1 <0>        -0.1286
     21 C15        -4.3389   -1.3860    6.9418 C.ar      1 <0>        -0.1132
     22 C16        -4.7591   -0.4624    6.0047 C.ar      1 <0>        -0.1453
     23 C17        -4.1799   -0.4423    4.7440 C.ar      1 <0>         0.1045
     24 O3         -4.5876    0.4691    3.8220 O.3       1 <0>        -0.4925
     25 C18        -0.9007   -5.7833   -0.7416 C.ar      1 <0>        -0.1004
     26 C19         0.4785   -5.8446   -0.6861 C.ar      1 <0>        -0.1004
     27 C20         1.1481   -6.9069   -1.2642 C.ar      1 <0>        -0.1257
     28 C21         0.4398   -7.9108   -1.8989 C.ar      1 <0>        -0.1040
     29 C22        -0.9390   -7.8543   -1.9568 C.ar      1 <0>        -0.1428
     30 C23        -1.6138   -6.7919   -1.3727 C.ar      1 <0>         0.1120
     31 O4         -2.9707   -6.7369   -1.4234 O.3       1 <0>        -0.4958
     32 H3          0.7464    1.8244   -1.2441 H         1 <0>         0.0821
     33 H4         -1.0189    1.7375   -1.4548 H         1 <0>         0.0685
     34 H5         -0.3249    1.9206    0.1741 H         1 <0>         0.0761
     35 H6          0.0114   -0.5103   -1.6411 H         1 <0>         0.1282
     36 H7          0.9456    0.0837    1.2022 H         1 <0>         0.0763
     37 H8          1.0333   -1.5131    0.4207 H         1 <0>         0.0729
     38 H9          1.9800   -0.1521   -0.2270 H         1 <0>         0.0755
     39 H10        -1.7550   -3.0565   -1.6253 H         1 <0>         0.0803
     40 H11        -0.1100   -3.3115   -0.9667 H         1 <0>         0.0710
     41 H12        -1.8475   -5.0435    2.0288 H         1 <0>         0.0863
     42 H13        -0.1626   -4.6999    1.5148 H         1 <0>         0.0817
     43 H14        -0.1103   -3.0916    3.3254 H         1 <0>         0.0791
     44 H15         0.5189   -2.0814    1.9859 H         1 <0>         0.0745
     45 H16        -0.7576   -1.0331    4.2202 H         1 <0>         0.0517
     46 H17        -0.7482   -0.2304    2.6245 H         1 <0>         0.1133
     47 H18        -3.5970   -2.6671    1.6669 H         1 <0>         0.0686
     48 H19        -2.9222   -3.4917    3.1074 H         1 <0>         0.0830
     49 H20        -1.9949   -2.9889    5.1188 H         1 <0>         0.1235
     50 H21        -3.0186   -3.0153    7.3567 H         1 <0>         0.1216
     51 H22        -4.7867   -1.3996    7.9245 H         1 <0>         0.1232
     52 H23        -5.5349    0.2462    6.2544 H         1 <0>         0.1254
     53 H24        -5.3201    0.1671    3.2676 H         1 <0>         0.3863
     54 H25         1.0339   -5.0618   -0.1909 H         1 <0>         0.1269
     55 H26         2.2262   -6.9527   -1.2204 H         1 <0>         0.1256
     56 H27         0.9653   -8.7395   -2.3501 H         1 <0>         0.1268
     57 H28        -1.4917   -8.6386   -2.4526 H         1 <0>         0.1291
     58 H29        -3.3170   -6.2769   -2.2003 H         1 <0>         0.3911
@<TRIPOS>BOND
     1    1    2 1
     2    1   32 1
     3    1   33 1
     4    1   34 1
     5    2    3 1
     6    2    4 1
     7    2   35 1
     8    3   36 1
     9    3   37 1
    10    3   38 1
    11    4    5 2
    12    4    6 2
    13    4    7 1
    14    7   12 1
    15    7    8 1
    16    8    9 1
    17    8   39 1
    18    8   40 1
    19    9   10 1
    20    9   11 1
    21    9   25 1
    22   11   12 1
    23   11   41 1
    24   11   42 1
    25   12   17 1
    26   12   13 1
    27   13   14 1
    28   13   43 1
    29   13   44 1
    30   14   15 1
    31   14   45 1
    32   14   46 1
    33   15   16 1
    34   15   17 1
    35   15   18 1
    36   17   47 1
    37   17   48 1
    38   18   23 ar
    39   18   19 ar
    40   19   20 ar
    41   19   49 1
    42   20   21 ar
    43   20   50 1
    44   21   22 ar
    45   21   51 1
    46   22   23 ar
    47   22   52 1
    48   23   24 1
    49   24   53 1
    50   25   30 ar
    51   25   26 ar
    52   26   27 ar
    53   26   54 1
    54   27   28 ar
    55   27   55 1
    56   28   29 ar
    57   28   56 1
    58   29   30 ar
    59   29   57 1
    60   30   31 1
    61   31   58 1
@<TRIPOS>MOLECULE
ZINC59515508
   42    43     0     0     0
SMALL
USER_CHARGES

@<TRIPOS>ATOM
      1 C1         -0.8327    1.2423   -0.3449 C.3       1 <0>        -0.1454
      2 C2          0.0146    0.0162    0.0011 C.3       1 <0>        -0.0577
      3 C3         -0.8892   -1.0905    0.5480 C.3       1 <0>        -0.1456
      4 C4          0.7168   -0.4752   -1.2384 C.ar      1 <0>        -0.0824
      5 C5         -0.0218   -0.8720   -2.3382 C.ar      1 <0>        -0.0949
      6 C6          0.6184   -1.3225   -3.4759 C.ar      1 <0>        -0.1323
      7 C7          2.0061   -1.3766   -3.5147 C.ar      1 <0>         0.1303
      8 C8          2.7450   -0.9772   -2.4081 C.ar      1 <0>        -0.1140
      9 C9          2.0984   -0.5229   -1.2756 C.ar      1 <0>        -0.0980
     10 N1          2.6572   -1.8323   -4.6641 N.am      1 <0>        -0.6377
     11 C10         3.8165   -2.5113   -4.5574 C.2       1 <0>         0.5164
     12 O1          4.2461   -2.8106   -3.4621 O.2       1 <0>        -0.4948
     13 C11         4.5713   -2.8950   -5.7847 C.2       1 <0>         0.5307
     14 O2          4.1416   -2.5956   -6.8804 O.2       1 <0>        -0.4744
     15 N2          5.7306   -3.5741   -5.6781 N.am      1 <0>        -0.5573
     16 N3          6.4399   -3.9346   -6.8313 N.2       1 <0>        -0.2269
     17 C12         7.5572   -4.5890   -6.7285 C.2       1 <0>         0.1221
     18 C13         8.3035   -4.9683   -7.9418 C.ar      1 <0>        -0.0458
     19 C14         7.8147   -4.6204   -9.2038 C.ar      1 <0>        -0.0708
     20 C15         8.5182   -4.9780  -10.3347 C.ar      1 <0>        -0.0953
     21 C16         9.7063   -5.6802  -10.2217 C.ar      1 <0>        -0.0742
     22 C17        10.1963   -6.0282   -8.9741 C.ar      1 <0>        -0.0953
     23 C18         9.5058   -5.6724   -7.8348 C.ar      1 <0>        -0.0800
     24 Br1        10.6637   -6.1668  -11.7781 Br        1 <0>        -0.0430
     25 H1         -0.1888    2.0308   -0.7344 H         1 <0>         0.0564
     26 H2         -1.5724    0.9718   -1.0984 H         1 <0>         0.0571
     27 H3         -1.3406    1.5977    0.5517 H         1 <0>         0.0593
     28 H4          0.7543    0.2867    0.7547 H         1 <0>         0.0787
     29 H5         -1.6289   -1.3610   -0.2055 H         1 <0>         0.0570
     30 H6         -0.2855   -1.9640    0.7945 H         1 <0>         0.0564
     31 H7         -1.3971   -0.7351    1.4445 H         1 <0>         0.0593
     32 H8         -1.1005   -0.8300   -2.3071 H         1 <0>         0.1288
     33 H9          0.0410   -1.6326   -4.3342 H         1 <0>         0.1294
     34 H10         3.8239   -1.0184   -2.4349 H         1 <0>         0.1341
     35 H11         2.6723   -0.2080   -0.4166 H         1 <0>         0.1277
     36 H12         2.2747   -1.6599   -5.5387 H         1 <0>         0.4249
     37 H13         6.0739   -3.8132   -4.8030 H         1 <0>         0.4019
     38 H14         7.9394   -4.8552   -5.7541 H         1 <0>         0.1306
     39 H15         6.8881   -4.0730   -9.2933 H         1 <0>         0.1453
     40 H16         8.1414   -4.7100  -11.3107 H         1 <0>         0.1390
     41 H17        11.1236   -6.5760   -8.8931 H         1 <0>         0.1400
     42 H18         9.8911   -5.9408   -6.8623 H         1 <0>         0.1405
@<TRIPOS>BOND
     1    1    2 1
     2    1   25 1
     3    1   26 1
     4    1   27 1
     5    2    3 1
     6    2    4 1
     7    2   28 1
     8    3   29 1
     9    3   30 1
    10    3   31 1
    11    4    9 ar
    12    4    5 ar
    13    5    6 ar
    14    5   32 1
    15    6    7 ar
    16    6   33 1
    17    7    8 ar
    18    7   10 1
    19    8    9 ar
    20    8   34 1
    21    9   35 1
    22   10   11 am
    23   10   36 1
    24   11   12 2
    25   11   13 1
    26   13   14 2
    27   13   15 am
    28   15   16 1
    29   15   37 1
    30   16   17 2
    31   17   18 1
    32   17   38 1
    33   18   23 ar
    34   18   19 ar
    35   19   20 ar
    36   19   39 1
    37   20   21 ar
    38   20   40 1
    39   21   22 ar
    40   21   24 1
    41   22   23 ar
    42   22   41 1
    43   23   42 1
@<TRIPOS>MOLECULE
ZINC08766615
   83    89     0     0     0
SMALL
USER_CHARGES
3-[3-(4-benzhydrylpiperazin-1-yl)carbonyl-1-piperidyl]-6-chloro-4-phenyl-1H-quinolin-2-one
@<TRIPOS>ATOM
      1 C1          6.7413    6.6820    1.9074 C.ar      1 <0>        -0.1070
      2 C2          6.5364    6.0521    3.1221 C.ar      1 <0>        -0.1204
      3 C3          7.3904    5.0508    3.5361 C.ar      1 <0>        -0.1043
      4 C4          8.4632    4.6740    2.7267 C.ar      1 <0>        -0.0482
      5 C5          8.6679    5.3177    1.5053 C.ar      1 <0>        -0.0725
      6 C6          7.8027    6.3129    1.1001 C.ar      1 <0>        -0.1150
      7 C7          9.3828    3.6011    3.1642 C.2       1 <0>         0.0853
      8 C8         10.2337    3.7733    4.3530 C.ar      1 <0>        -0.1084
      9 C9         10.1962    4.9529    5.0995 C.ar      1 <0>        -0.0424
     10 C10        11.0046    5.0838    6.2076 C.ar      1 <0>        -0.0639
     11 C11        11.8539    4.0508    6.5826 C.ar      1 <0>        -0.0502
     12 C12        11.9015    2.8816    5.8550 C.ar      1 <0>        -0.1474
     13 C13        11.0933    2.7285    4.7330 C.ar      1 <0>         0.1894
     14 N1         11.1291    1.5633    3.9925 N.am      1 <0>        -0.6260
     15 H1         11.7256    0.8478    4.2627 H         1 <0>         0.4184
     16 C14        10.3511    1.3962    2.9100 C.2       1 <0>         0.5186
     17 O1         10.4121    0.3481    2.2906 O.2       1 <0>        -0.5304
     18 C15         9.4666    2.4092    2.4669 C.2       1 <0>        -0.0142
     19 N2          8.6776    2.2037    1.3337 N.pl3     1 <0>        -0.4601
     20 C16         9.5096    2.0597    0.1323 C.3       1 <0>         0.0463
     21 C17         8.6123    1.9822   -1.1050 C.3       1 <0>        -0.1131
     22 C18         7.6661    0.7859   -0.9702 C.3       1 <0>        -0.1062
     23 C19         6.8463    0.9358    0.3143 C.3       1 <0>        -0.1005
     24 H2          6.2346    1.8359    0.2527 H         1 <0>         0.1031
     25 C20         7.7948    1.0436    1.5104 C.3       1 <0>         0.0643
     26 C21         5.9551   -0.2673    0.4857 C.2       1 <0>         0.5310
     27 O2          6.2519   -1.3211   -0.0363 O.2       1 <0>        -0.5008
     28 N3          4.8283   -0.1723    1.2190 N.am      1 <0>        -0.6336
     29 C22         4.3873    1.1219    1.7612 C.3       1 <0>         0.0819
     30 C23         4.1142    0.9542    3.2597 C.3       1 <0>        -0.0198
     31 C24         3.7485   -1.4299    3.0067 C.3       1 <0>        -0.0166
     32 C25         4.0067   -1.3599    1.4978 C.3       1 <0>         0.0896
     33 C26         2.7530   -0.2410    4.8663 C.3       1 <0>         0.1369
     34 C27         2.1613    1.0775    5.2935 C.ar      1 <0>        -0.1330
     35 C28         1.2916    1.7490    4.4545 C.ar      1 <0>        -0.1206
     36 C29         0.7447    2.9558    4.8486 C.ar      1 <0>        -0.1017
     37 C30         1.0760    3.4966    6.0769 C.ar      1 <0>        -0.0910
     38 C31         1.9501    2.8279    6.9134 C.ar      1 <0>        -0.1032
     39 C32         2.4925    1.6183    6.5218 C.ar      1 <0>        -0.0865
     40 C33         1.7196   -1.3275    5.0164 C.ar      1 <0>        -0.1348
     41 C34         0.6993   -1.4436    4.0909 C.ar      1 <0>        -0.1197
     42 C35        -0.2456   -2.4436    4.2257 C.ar      1 <0>        -0.1024
     43 C36        -0.1765   -3.3206    5.2919 C.ar      1 <0>        -0.0908
     44 C37         0.8405   -3.2010    6.2206 C.ar      1 <0>        -0.1038
     45 C38         1.7887   -2.2046    6.0827 C.ar      1 <0>        -0.0864
     46 Cl1        10.9617    6.5478    7.1396 Cl        1 <0>        -0.0512
     47 H3          6.0697    7.4651    1.5877 H         1 <0>         0.1241
     48 H4          5.7059    6.3447    3.7474 H         1 <0>         0.1238
     49 H5          7.2289    4.5594    4.4841 H         1 <0>         0.1197
     50 H6          9.4990    5.0341    0.8767 H         1 <0>         0.1224
     51 H7          7.9570    6.8083    0.1529 H         1 <0>         0.1269
     52 H8          9.5367    5.7578    4.8103 H         1 <0>         0.1483
     53 H9         12.4829    4.1649    7.4531 H         1 <0>         0.1481
     54 H10        12.5658    2.0848    6.1553 H         1 <0>         0.1474
     55 H11        10.1743    2.9192    0.0456 H         1 <0>         0.0783
     56 H12        10.1026    1.1482    0.2083 H         1 <0>         0.0616
     57 H13         8.0289    2.8991   -1.1894 H         1 <0>         0.0745
     58 H14         9.2294    1.8597   -1.9950 H         1 <0>         0.0802
     59 H15         8.2479   -0.1348   -0.9256 H         1 <0>         0.0786
     60 H16         6.9953    0.7527   -1.8287 H         1 <0>         0.0722
     61 H17         7.2140    1.1651    2.4247 H         1 <0>         0.0670
     62 H18         8.3959    0.1370    1.5800 H         1 <0>         0.0726
     63 H19         3.4750    1.4388    1.2559 H         1 <0>         0.0977
     64 H20         5.1692    1.8666    1.6126 H         1 <0>         0.1373
     65 H21         3.6818    1.8731    3.6556 H         1 <0>         0.1450
     66 H22         5.0486    0.7387    3.7779 H         1 <0>         0.1360
     67 H23         4.6880   -1.6122    3.5284 H         1 <0>         0.1364
     68 H24         3.0511   -2.2400    3.2196 H         1 <0>         0.1430
     69 H25         4.5368   -2.2559    1.1752 H         1 <0>         0.1368
     70 H26         3.0577   -1.2815    0.9673 H         1 <0>         0.0938
     71 H27         3.6159   -0.4714    5.4912 H         1 <0>         0.1483
     72 H28         1.0363    1.3287    3.4930 H         1 <0>         0.1151
     73 H29         0.0616    3.4781    4.1952 H         1 <0>         0.1356
     74 H30         0.6516    4.4413    6.3831 H         1 <0>         0.1360
     75 H31         2.2089    3.2504    7.8730 H         1 <0>         0.1370
     76 H32         3.1754    1.0958    7.1753 H         1 <0>         0.1321
     77 H33         0.6428   -0.7556    3.2604 H         1 <0>         0.1153
     78 H34        -1.0400   -2.5373    3.5000 H         1 <0>         0.1358
     79 H35        -0.9169   -4.0996    5.3993 H         1 <0>         0.1363
     80 H36         0.8945   -3.8862    7.0536 H         1 <0>         0.1373
     81 H37         2.5832   -2.1111    6.8082 H         1 <0>         0.1325
     82 N4          3.1489   -0.1510    3.4456 N.4       1 <0>        -0.3917
     83 H38         2.3142    0.0373    2.8782 H         1 <0>         0.4198
@<TRIPOS>BOND
     1    1    6 ar
     2    1    2 ar
     3    1   47 1
     4    2    3 ar
     5    2   48 1
     6    3    4 ar
     7    3   49 1
     8    4    5 ar
     9    4    7 1
    10    5    6 ar
    11    5   50 1
    12    6   51 1
    13    7   18 2
    14    7    8 1
    15    8   13 ar
    16    8    9 ar
    17    9   10 ar
    18    9   52 1
    19   10   11 ar
    20   10   46 1
    21   11   12 ar
    22   11   53 1
    23   12   13 ar
    24   12   54 1
    25   13   14 1
    26   14   15 1
    27   14   16 am
    28   16   17 2
    29   16   18 1
    30   18   19 1
    31   19   25 1
    32   19   20 1
    33   20   21 1
    34   20   55 1
    35   20   56 1
    36   21   22 1
    37   21   57 1
    38   21   58 1
    39   22   23 1
    40   22   59 1
    41   22   60 1
    42   23   24 1
    43   23   25 1
    44   23   26 1
    45   25   61 1
    46   25   62 1
    47   26   27 2
    48   26   28 am
    49   28   32 1
    50   28   29 1
    51   29   30 1
    52   29   63 1
    53   29   64 1
    54   30   65 1
    55   30   66 1
    56   30   82 1
    57   31   32 1
    58   31   67 1
    59   31   68 1
    60   31   82 1
    61   32   69 1
    62   32   70 1
    63   33   34 1
    64   33   40 1
    65   33   71 1
    66   33   82 1
    67   34   39 ar
    68   34   35 ar
    69   35   36 ar
    70   35   72 1
    71   36   37 ar
    72   36   73 1
    73   37   38 ar
    74   37   74 1
    75   38   39 ar
    76   38   75 1
    77   39   76 1
    78   40   45 ar
    79   40   41 ar
    80   41   42 ar
    81   41   77 1
    82   42   43 ar
    83   42   78 1
    84   43   44 ar
    85   43   79 1
    86   44   45 ar
    87   44   80 1
    88   45   81 1
    89   82   83 1
@<TRIPOS>MOLECULE
ZINC06446186
   77    81     0     0     0
SMALL
USER_CHARGES
N-benzyl-N-[(1S)-2-(cyclohexylamino)-2-oxo-1-(4-pyridyl)ethyl]-5-(1-piperidylmethyl)furan-2-carboxamide
@<TRIPOS>ATOM
      1 C1          8.3625   -2.8775    1.2142 C.ar      1 <0>        -0.1133
      2 C2          7.1698   -3.4388    1.6305 C.ar      1 <0>        -0.1353
      3 C3          5.9690   -2.9257    1.1771 C.ar      1 <0>        -0.1305
      4 C4          5.9609   -1.8512    0.3074 C.ar      1 <0>        -0.0715
      5 C5          7.1536   -1.2896   -0.1085 C.ar      1 <0>        -0.0872
      6 C6          8.3544   -1.8027    0.3449 C.ar      1 <0>        -0.1087
      7 C7          4.6518   -1.2918   -0.1869 C.3       1 <0>         0.0871
      8 N1          4.7373   -1.0509   -1.6294 N.am      1 <0>        -0.5809
      9 C8          4.8401    0.3189   -2.1385 C.3       1 <0>         0.1688
     10 H1          5.4939    0.3343   -3.0106 H         1 <0>         0.1279
     11 C9          3.4712    0.8142   -2.5281 C.ar      1 <0>        -0.0647
     12 C10         2.3837    0.6286   -1.6883 C.ar      1 <0>        -0.1528
     13 C11         1.1442    1.1001   -2.0773 C.ar      1 <0>         0.1045
     14 N2          0.9880    1.7111   -3.2354 N.ar      1 <0>        -0.4722
     15 C12         1.9985    1.9009   -4.0611 C.ar      1 <0>         0.1085
     16 C13         3.2681    1.4610   -3.7376 C.ar      1 <0>        -0.1500
     17 C14         5.4110    1.2115   -1.0669 C.2       1 <0>         0.5217
     18 O1          5.3645    0.8693    0.0957 O.2       1 <0>        -0.5108
     19 N3          5.9732    2.3902   -1.4004 N.am      1 <0>        -0.7084
     20 C15         6.5282    3.2579   -0.3587 C.3       1 <0>         0.1457
     21 C16         5.4132    4.1238    0.2313 C.3       1 <0>        -0.1277
     22 C17         5.9928    5.0300    1.3193 C.3       1 <0>        -0.1170
     23 C18         7.0707    5.9303    0.7123 C.3       1 <0>        -0.1248
     24 C19         8.1857    5.0645    0.1223 C.3       1 <0>        -0.1159
     25 C20         7.6061    4.1582   -0.9656 C.3       1 <0>        -0.1281
     26 C21         4.7213   -2.0895   -2.4882 C.2       1 <0>         0.6016
     27 O2          4.9482   -1.9058   -3.6696 O.2       1 <0>        -0.4923
     28 C22         4.4304   -3.4411   -1.9989 C.2       1 <0>        -0.0122
     29 C23         4.4913   -4.5907   -2.7333 C.2       1 <0>        -0.1258
     30 C24         4.1395   -5.6401   -1.8701 C.2       1 <0>        -0.1488
     31 C25         3.8738   -5.0910   -0.6643 C.2       1 <0>        -0.0856
     32 O3          4.0501   -3.7659   -0.7459 O.3       1 <0>        -0.1394
     33 C26         3.4482   -5.8454    0.5690 C.3       1 <0>         0.0878
     34 C27         5.4426   -7.2176    0.5829 C.3       1 <0>        -0.0110
     35 C28         6.7412   -7.5001    1.3417 C.3       1 <0>        -0.1477
     36 C29         6.4056   -8.0506    2.7305 C.3       1 <0>        -0.1385
     37 C30         5.5265   -7.0403    3.4727 C.3       1 <0>        -0.1488
     38 C31         4.2631   -6.7711    2.6521 C.3       1 <0>        -0.0054
     39 H2          9.3008   -3.2815    1.5647 H         1 <0>         0.1253
     40 H3          7.1762   -4.2785    2.3097 H         1 <0>         0.1134
     41 H4          5.0372   -3.3643    1.5022 H         1 <0>         0.1034
     42 H5          7.1472   -0.4501   -0.7879 H         1 <0>         0.1137
     43 H6          9.2862   -1.3642    0.0197 H         1 <0>         0.1252
     44 H7          3.8524   -2.0046    0.0157 H         1 <0>         0.0806
     45 H8          4.4407   -0.3536    0.3262 H         1 <0>         0.1820
     46 H9          2.5044    0.1250   -0.7405 H         1 <0>         0.1326
     47 H10         0.2927    0.9626   -1.4273 H         1 <0>         0.1595
     48 H11         1.8320    2.4057   -5.0013 H         1 <0>         0.1637
     49 H12         4.0917    1.6194   -4.4180 H         1 <0>         0.1412
     50 H13         6.0103    2.6639   -2.3303 H         1 <0>         0.4047
     51 H14         6.9675    2.6452    0.4286 H         1 <0>         0.0930
     52 H15         4.9739    4.7364   -0.5560 H         1 <0>         0.0655
     53 H16         4.6453    3.4823    0.6637 H         1 <0>         0.0663
     54 H17         6.4321    4.4173    2.1065 H         1 <0>         0.0644
     55 H18         5.1985    5.6469    1.7395 H         1 <0>         0.0678
     56 H19         7.4836    6.5760    1.4874 H         1 <0>         0.0675
     57 H20         6.6314    6.5430   -0.0749 H         1 <0>         0.0646
     58 H21         8.6250    4.4518    0.9096 H         1 <0>         0.0654
     59 H22         8.9536    5.7059   -0.3101 H         1 <0>         0.0712
     60 H23         8.4004    3.5414   -1.3859 H         1 <0>         0.0700
     61 H24         7.1668    4.7709   -1.7529 H         1 <0>         0.0713
     62 H25         4.7599   -4.6761   -3.7759 H         1 <0>         0.1738
     63 H26         4.0868   -6.6887   -2.1231 H         1 <0>         0.1694
     64 H27         2.8176   -5.2059    1.1866 H         1 <0>         0.1469
     65 H28         2.8886   -6.7339    0.2764 H         1 <0>         0.1628
     66 H29         4.8798   -8.1440    0.4686 H         1 <0>         0.1356
     67 H30         5.6778   -6.8120   -0.4011 H         1 <0>         0.1282
     68 H31         7.3110   -6.5765    1.4443 H         1 <0>         0.0866
     69 H32         7.3315   -8.2335    0.7924 H         1 <0>         0.1143
     70 H33         7.3267   -8.2125    3.2905 H         1 <0>         0.0955
     71 H34         5.8700   -8.9946    2.6295 H         1 <0>         0.0841
     72 H35         6.0772   -6.1095    3.6088 H         1 <0>         0.0864
     73 H36         5.2489   -7.4452    4.4459 H         1 <0>         0.1162
     74 H37         3.6416   -6.0413    3.1710 H         1 <0>         0.1309
     75 H38         3.7058   -7.6997    2.5282 H         1 <0>         0.1365
     76 N4          4.6536   -6.2203    1.3368 N.4       1 <0>        -0.4010
     77 H39         5.2290   -5.3828    1.4840 H         1 <0>         0.4234
@<TRIPOS>BOND
     1    1    6 ar
     2    1    2 ar
     3    1   39 1
     4    2    3 ar
     5    2   40 1
     6    3    4 ar
     7    3   41 1
     8    4    5 ar
     9    4    7 1
    10    5    6 ar
    11    5   42 1
    12    6   43 1
    13    7    8 1
    14    7   44 1
    15    7   45 1
    16    8    9 1
    17    8   26 am
    18    9   10 1
    19    9   11 1
    20    9   17 1
    21   11   16 ar
    22   11   12 ar
    23   12   13 ar
    24   12   46 1
    25   13   14 ar
    26   13   47 1
    27   14   15 ar
    28   15   16 ar
    29   15   48 1
    30   16   49 1
    31   17   18 2
    32   17   19 am
    33   19   20 1
    34   19   50 1
    35   20   25 1
    36   20   21 1
    37   20   51 1
    38   21   22 1
    39   21   52 1
    40   21   53 1
    41   22   23 1
    42   22   54 1
    43   22   55 1
    44   23   24 1
    45   23   56 1
    46   23   57 1
    47   24   25 1
    48   24   58 1
    49   24   59 1
    50   25   60 1
    51   25   61 1
    52   26   27 2
    53   26   28 1
    54   28   32 1
    55   28   29 2
    56   29   30 1
    57   29   62 1
    58   30   31 2
    59   30   63 1
    60   31   32 1
    61   31   33 1
    62   33   64 1
    63   33   65 1
    64   33   76 1
    65   34   35 1
    66   34   66 1
    67   34   67 1
    68   34   76 1
    69   35   36 1
    70   35   68 1
    71   35   69 1
    72   36   37 1
    73   36   70 1
    74   36   71 1
    75   37   38 1
    76   37   72 1
    77   37   73 1
    78   38   74 1
    79   38   75 1
    80   38   76 1
    81   76   77 1
@<TRIPOS>MOLECULE
ZINC31045514
   50    53     0     0     0
SMALL
USER_CHARGES
(3R)-N-(4-bromo-3-chloro-phenyl)-1-[[3-(4-chlorophenyl)-1,2,4-oxadiazol-5-yl]methyl]piperidine-3-carboxamide
@<TRIPOS>ATOM
      1 C1          8.4020    3.2384    3.5240 C.ar      1 <0>        -0.0572
      2 C2          9.2653    3.8153    4.4329 C.ar      1 <0>        -0.1120
      3 C3         10.3761    4.5126    3.9895 C.ar      1 <0>        -0.0059
      4 C4         10.6301    4.6290    2.6335 C.ar      1 <0>        -0.1095
      5 C5          9.7763    4.0499    1.7172 C.ar      1 <0>        -0.0630
      6 C6          8.6568    3.3475    2.1585 C.ar      1 <0>        -0.0469
      7 C7          7.7354    2.7228    1.1771 C.2       1 <0>         0.2346
      8 N1          6.6151    2.0210    1.4617 N.2       1 <0>        -0.4237
      9 C8          6.1229    1.6591    0.3031 C.2       1 <0>         0.1032
     10 O1          6.9356    2.1467   -0.6394 O.3       1 <0>         0.1134
     11 N2          7.8522    2.7520   -0.1251 N.2       1 <0>        -0.3398
     12 C9          4.8718    0.8505    0.0754 C.3       1 <0>         0.1081
     13 N3          3.7190    1.7539   -0.0394 N.4       1 <0>        -0.4010
     14 C10         3.8210    2.5866   -1.2447 C.3       1 <0>        -0.0168
     15 C11         2.6846    3.6115   -1.2558 C.3       1 <0>        -0.1412
     16 C12         1.3412    2.8771   -1.2324 C.3       1 <0>        -0.1332
     17 C13         1.2804    1.9801    0.0071 C.3       1 <0>        -0.1279
     18 H1          1.3213    2.5940    0.9189 H         1 <0>         0.1293
     19 C14         2.4575    1.0025   -0.0184 C.3       1 <0>         0.0134
     20 C15        -0.0143    1.2088    0.0069 C.2       1 <0>         0.5275
     21 O2          0.0022   -0.0038   -0.0081 O.2       1 <0>        -0.5107
     22 N4         -1.1906    1.8666    0.0178 N.am      1 <0>        -0.6732
     23 C16        -2.3913    1.1550   -0.0860 C.ar      1 <0>         0.1631
     24 C17        -2.5095   -0.0990    0.4993 C.ar      1 <0>        -0.1119
     25 C18        -3.6953   -0.7993    0.3961 C.ar      1 <0>        -0.0589
     26 C19        -4.7655   -0.2533   -0.2900 C.ar      1 <0>        -0.0980
     27 C20        -4.6510    0.9965   -0.8746 C.ar      1 <0>         0.0041
     28 C21        -3.4680    1.7040   -0.7692 C.ar      1 <0>        -0.1278
     29 Cl1        -5.9961    1.6787   -1.7342 Cl        1 <0>        -0.0297
     30 Br1        -6.3871   -1.2160   -0.4301 Br        1 <0>        -0.0138
     31 Cl2        11.4543    5.2428    5.1376 Cl        1 <0>        -0.0436
     32 H2          7.5329    2.6990    3.8707 H         1 <0>         0.1449
     33 H3          9.0712    3.7271    5.4917 H         1 <0>         0.1482
     34 H4         11.4981    5.1736    2.2925 H         1 <0>         0.1486
     35 H5          9.9757    4.1407    0.6596 H         1 <0>         0.1421
     36 H6          4.9753    0.2683   -0.8522 H         1 <0>         0.1694
     37 H7          4.7183    0.1660    0.9227 H         1 <0>         0.1790
     38 H8          4.7877    3.1115   -1.2469 H         1 <0>         0.1286
     39 H9          3.7479    1.9490   -2.1381 H         1 <0>         0.1402
     40 H10         2.7660    4.2589   -0.3702 H         1 <0>         0.0934
     41 H11         2.7532    4.2252   -2.1661 H         1 <0>         0.1234
     42 H12         0.5226    3.6111   -1.1978 H         1 <0>         0.1034
     43 H13         1.2438    2.2618   -2.1390 H         1 <0>         0.0943
     44 H14         2.3910    0.3725   -0.9177 H         1 <0>         0.1456
     45 H15         2.4246    0.3662    0.8783 H         1 <0>         0.1486
     46 H16        -1.2070    2.9628    0.1083 H         1 <0>         0.4432
     47 H17        -1.6747   -0.5261    1.0351 H         1 <0>         0.1519
     48 H18        -3.7872   -1.7744    0.8512 H         1 <0>         0.1492
     49 H19        -3.3800    2.6807   -1.2217 H         1 <0>         0.1469
     50 H20         3.7245    2.4243    0.8327 H         1 <0>         0.4481
@<TRIPOS>BOND
     1    1    6 ar
     2    1    2 ar
     3    1   32 1
     4    2    3 ar
     5    2   33 1
     6    3    4 ar
     7    3   31 1
     8    4    5 ar
     9    4   34 1
    10    5    6 ar
    11    5   35 1
    12    6    7 1
    13    7   11 2
    14    7    8 1
    15    8    9 2
    16    9   10 1
    17    9   12 1
    18   10   11 1
    19   12   13 1
    20   12   36 1
    21   12   37 1
    22   13   19 1
    23   13   14 1
    24   13   50 1
    25   14   15 1
    26   14   38 1
    27   14   39 1
    28   15   16 1
    29   15   40 1
    30   15   41 1
    31   16   17 1
    32   16   42 1
    33   16   43 1
    34   17   18 1
    35   17   19 1
    36   17   20 1
    37   19   44 1
    38   19   45 1
    39   20   21 2
    40   20   22 am
    41   22   23 1
    42   22   46 1
    43   23   28 ar
    44   23   24 ar
    45   24   25 ar
    46   24   47 1
    47   25   26 ar
    48   25   48 1
    49   26   27 ar
    50   26   30 1
    51   27   28 ar
    52   27   29 1
    53   28   49 1
@<TRIPOS>MOLECULE
ZINC36202541
   71    75     0     0     0
SMALL
USER_CHARGES

@<TRIPOS>ATOM
      1 C1         -1.3148    1.0762   -1.2382 C.3       1 <0>        -0.0909
      2 C2         -1.2033   -0.4159   -1.0589 C.2       1 <0>         0.0476
      3 C3         -2.2202   -1.2538   -0.7883 C.2       1 <0>        -0.2201
      4 C4         -1.6690   -2.5530   -0.7035 C.2       1 <0>        -0.1326
      5 C5         -0.3482   -2.4313   -0.9274 C.2       1 <0>        -0.1131
      6 O1         -0.0727   -1.1354   -1.1478 O.3       1 <0>        -0.1655
      7 C6          0.6519   -3.5586   -0.9353 C.3       1 <0>         0.0887
      8 N1          0.6694   -4.1884   -2.2622 N.4       1 <0>        -0.3871
      9 C7          1.1759   -3.2293   -3.2529 C.3       1 <0>        -0.0134
     10 C8          1.0571   -3.8325   -4.6540 C.3       1 <0>         0.0285
     11 N2          1.4487   -2.8299   -5.6536 N.3       1 <0>        -0.5277
     12 C9          0.4950   -1.7114   -5.6796 C.3       1 <0>         0.0083
     13 C10         0.9720   -0.6644   -6.6896 C.3       1 <0>         0.0617
     14 O2          1.1202   -1.2795   -7.9722 O.3       1 <0>        -0.3779
     15 C11         2.0424   -2.3725   -7.9835 C.3       1 <0>         0.0604
     16 C12         1.5762   -3.4368   -6.9866 C.3       1 <0>         0.0181
     17 C13         1.5431   -5.3690   -2.2324 C.3       1 <0>         0.0855
     18 C14         0.9572   -6.4043   -1.3074 C.2       1 <0>        -0.1051
     19 C15         0.1007   -7.3797   -1.6600 C.2       1 <0>        -0.1314
     20 C16        -0.1875   -8.1154   -0.4876 C.2       1 <0>        -0.1817
     21 C17         0.5101   -7.5456    0.5114 C.2       1 <0>         0.0094
     22 O3          1.2061   -6.5132    0.0079 O.3       1 <0>        -0.1560
     23 C18         0.5143   -7.9932    1.9504 C.3       1 <0>         0.3102
     24 C19         1.8474   -7.6682    2.5736 C.ar      1 <0>        -0.0998
     25 C20         2.6889   -8.6885    2.9768 C.ar      1 <0>        -0.1118
     26 C21         3.9119   -8.3920    3.5486 C.ar      1 <0>        -0.0810
     27 C22         4.2948   -7.0748    3.7184 C.ar      1 <0>        -0.1404
     28 C23         3.4530   -6.0523    3.3151 C.ar      1 <0>         0.1027
     29 C24         2.2306   -6.3507    2.7368 C.ar      1 <0>        -0.1342
     30 F1          3.8261   -4.7645    3.4810 F         1 <0>        -0.1348
     31 C25        -0.5791   -7.2786    2.7019 C.ar      1 <0>        -0.0536
     32 C26        -0.8214   -5.9388    2.4612 C.ar      1 <0>        -0.1244
     33 C27        -1.8240   -5.2821    3.1498 C.ar      1 <0>        -0.0867
     34 C28        -2.5853   -5.9641    4.0802 C.ar      1 <0>        -0.1406
     35 C29        -2.3436   -7.3056    4.3221 C.ar      1 <0>         0.1091
     36 C30        -1.3429   -7.9640    3.6272 C.ar      1 <0>        -0.1158
     37 F2         -3.0868   -7.9732    5.2316 F         1 <0>        -0.1293
     38 O4          0.2912   -9.4033    2.0113 O.3       1 <0>        -0.5181
     39 H1         -0.3299    1.4909   -1.4531 H         1 <0>         0.0845
     40 H2         -1.9890    1.2932   -2.0667 H         1 <0>         0.0987
     41 H3         -1.7060    1.5238   -0.3246 H         1 <0>         0.0998
     42 H4         -3.2584   -0.9855   -0.6598 H         1 <0>         0.1627
     43 H5         -2.2053   -3.4676   -0.4981 H         1 <0>         0.1591
     44 H6          1.6429   -3.1667   -0.7060 H         1 <0>         0.1478
     45 H7          0.3714   -4.2984   -0.1856 H         1 <0>         0.1506
     46 H8          0.5907   -2.3111   -3.2019 H         1 <0>         0.1343
     47 H9          2.2215   -3.0060   -3.0410 H         1 <0>         0.1448
     48 H10         1.7127   -4.6997   -4.7329 H         1 <0>         0.1011
     49 H11         0.0262   -4.1391   -4.8313 H         1 <0>         0.0591
     50 H12        -0.4886   -2.0784   -5.9729 H         1 <0>         0.0529
     51 H13         0.4354   -1.2608   -4.6889 H         1 <0>         0.0855
     52 H14         0.2389    0.1397   -6.7541 H         1 <0>         0.1049
     53 H15         1.9310   -0.2585   -6.3676 H         1 <0>         0.0649
     54 H16         2.0835   -2.8038   -8.9837 H         1 <0>         0.1076
     55 H17         3.0326   -2.0163   -7.6991 H         1 <0>         0.0657
     56 H18         2.3060   -4.2457   -6.9499 H         1 <0>         0.0948
     57 H19         0.6100   -3.8314   -7.3008 H         1 <0>         0.0531
     58 H20         1.6266   -5.7846   -3.2366 H         1 <0>         0.1615
     59 H21         2.5317   -5.0804   -1.8753 H         1 <0>         0.1507
     60 H22        -0.2920   -7.5650   -2.6489 H         1 <0>         0.1649
     61 H23        -0.8424   -8.9706   -0.4091 H         1 <0>         0.1687
     62 H24         2.3902   -9.7180    2.8451 H         1 <0>         0.1384
     63 H25         4.5683   -9.1898    3.8631 H         1 <0>         0.1426
     64 H26         5.2501   -6.8433    4.1658 H         1 <0>         0.1426
     65 H27         1.5751   -5.5539    2.4178 H         1 <0>         0.1334
     66 H28        -0.2266   -5.4049    1.7349 H         1 <0>         0.1187
     67 H29        -2.0124   -4.2355    2.9610 H         1 <0>         0.1376
     68 H30        -3.3681   -5.4506    4.6186 H         1 <0>         0.1431
     69 H31        -1.1564   -9.0117    3.8118 H         1 <0>         0.1510
     70 H32         0.9584   -9.9275    1.5475 H         1 <0>         0.3936
     71 H33        -0.2666   -4.4690   -2.5137 H         1 <0>         0.4244
@<TRIPOS>BOND
     1    1    2 1
     2    1   39 1
     3    1   40 1
     4    1   41 1
     5    2    6 1
     6    2    3 2
     7    3    4 1
     8    3   42 1
     9    4    5 2
    10    4   43 1
    11    5    6 1
    12    5    7 1
    13    7    8 1
    14    7   44 1
    15    7   45 1
    16    8    9 1
    17    8   17 1
    18    8   71 1
    19    9   10 1
    20    9   46 1
    21    9   47 1
    22   10   11 1
    23   10   48 1
    24   10   49 1
    25   11   16 1
    26   11   12 1
    27   12   13 1
    28   12   50 1
    29   12   51 1
    30   13   14 1
    31   13   52 1
    32   13   53 1
    33   14   15 1
    34   15   16 1
    35   15   54 1
    36   15   55 1
    37   16   56 1
    38   16   57 1
    39   17   18 1
    40   17   58 1
    41   17   59 1
    42   18   22 1
    43   18   19 2
    44   19   20 1
    45   19   60 1
    46   20   21 2
    47   20   61 1
    48   21   22 1
    49   21   23 1
    50   23   24 1
    51   23   31 1
    52   23   38 1
    53   24   29 ar
    54   24   25 ar
    55   25   26 ar
    56   25   62 1
    57   26   27 ar
    58   26   63 1
    59   27   28 ar
    60   27   64 1
    61   28   29 ar
    62   28   30 1
    63   29   65 1
    64   31   36 ar
    65   31   32 ar
    66   32   33 ar
    67   32   66 1
    68   33   34 ar
    69   33   67 1
    70   34   35 ar
    71   34   68 1
    72   35   36 ar
    73   35   37 1
    74   36   69 1
    75   38   70 1
@<TRIPOS>MOLECULE
ZINC45912823
   56    59     0     0     0
SMALL
USER_CHARGES

@<TRIPOS>ATOM
      1 C1         -0.0252    1.6742    0.0002 C.3       1 <0>        -0.1891
      2 C2         -0.0035    0.1447   -0.0359 C.3       1 <0>        -0.0099
      3 N1          0.7094   -0.3629    1.1439 N.4       1 <0>        -0.3836
      4 C3          2.1144    0.0571    1.0826 C.3       1 <0>        -0.0050
      5 C4          2.8410   -0.3944    2.3520 C.3       1 <0>        -0.1071
      6 C5          2.7561   -1.9167    2.4666 C.3       1 <0>         0.1643
      7 C6          1.2919   -2.3567    2.4437 C.3       1 <0>        -0.1075
      8 C7          0.6262   -1.8281    1.1707 C.3       1 <0>        -0.0001
      9 N2          3.4881   -2.5462    1.3638 N.2       1 <0>        -0.4678
     10 C8          4.4328   -3.2674    1.8903 C.2       1 <0>         0.2381
     11 C9          4.3769   -3.1542    3.3669 C.2       1 <0>         0.1054
     12 N3          3.3985   -2.3661    3.7048 N.2       1 <0>        -0.4732
     13 S1          5.4666   -3.9626    4.4911 S.3       1 <0>         0.1100
     14 C10         4.8870   -3.4284    6.1249 C.3       1 <0>        -0.1678
     15 C11         5.7453   -4.0565    7.1925 C.2       1 <0>         0.5357
     16 O1          6.6582   -4.7922    6.8818 O.2       1 <0>        -0.4930
     17 N4          5.4985   -3.8008    8.4925 N.am      1 <0>        -0.6609
     18 C12         6.3657   -4.2872    9.4787 C.ar      1 <0>         0.1399
     19 C13         7.7263   -4.3836    9.2221 C.ar      1 <0>        -0.1321
     20 C14         8.5806   -4.8640   10.1985 C.ar      1 <0>         0.1174
     21 C15         8.0792   -5.2486   11.4309 C.ar      1 <0>        -0.1328
     22 C16         6.7243   -5.1541   11.6890 C.ar      1 <0>        -0.1004
     23 C17         5.8662   -4.6692   10.7188 C.ar      1 <0>         0.0669
     24 F1          4.5430   -4.5719   10.9739 F         1 <0>        -0.1309
     25 F2          9.9050   -4.9586    9.9494 F         1 <0>        -0.1257
     26 C18         5.4128   -4.0774    1.1320 C.ar      1 <0>        -0.0604
     27 C19         6.0161   -5.1856    1.7280 C.ar      1 <0>        -0.0732
     28 C20         6.9280   -5.9368    1.0163 C.ar      1 <0>        -0.0859
     29 C21         7.2453   -5.5932   -0.2870 C.ar      1 <0>        -0.0623
     30 C22         6.6499   -4.4945   -0.8836 C.ar      1 <0>        -0.0944
     31 C23         5.7325   -3.7390   -0.1836 C.ar      1 <0>        -0.0612
     32 Br1         8.4970   -6.6279   -1.2557 Br        1 <0>        -0.0252
     33 H1          0.9972    2.0522   -0.0025 H         1 <0>         0.0801
     34 H2         -0.5541    2.0508   -0.8753 H         1 <0>         0.1078
     35 H3         -0.5340    2.0091    0.9041 H         1 <0>         0.0808
     36 H4         -1.0258   -0.2333   -0.0333 H         1 <0>         0.1321
     37 H5          0.5053   -0.1901   -0.9398 H         1 <0>         0.1303
     38 H6          2.5905   -0.3939    0.2120 H         1 <0>         0.1383
     39 H7          2.1655    1.1430    1.0019 H         1 <0>         0.1391
     40 H8          3.8866   -0.0911    2.3004 H         1 <0>         0.1136
     41 H9          2.3711    0.0629    3.2227 H         1 <0>         0.1071
     42 H10         1.2387   -3.4453    2.4572 H         1 <0>         0.1140
     43 H11         0.7776   -1.9556    3.3170 H         1 <0>         0.1073
     44 H12        -0.4202   -2.1326    1.1550 H         1 <0>         0.1378
     45 H13         1.1359   -2.2366    0.2981 H         1 <0>         0.1385
     46 H14         4.9539   -2.3428    6.1970 H         1 <0>         0.1322
     47 H15         3.8512   -3.7386    6.2622 H         1 <0>         0.1313
     48 H16         4.7203   -3.2799    8.7451 H         1 <0>         0.4203
     49 H17         8.1177   -4.0842    8.2611 H         1 <0>         0.1567
     50 H18         8.7479   -5.6234   12.1917 H         1 <0>         0.1530
     51 H19         6.3361   -5.4554   12.6508 H         1 <0>         0.1556
     52 H20         5.7696   -5.4544    2.7445 H         1 <0>         0.1431
     53 H21         7.3958   -6.7946    1.4766 H         1 <0>         0.1484
     54 H22         6.9015   -4.2310   -1.9003 H         1 <0>         0.1445
     55 H23         5.2654   -2.8849   -0.6514 H         1 <0>         0.1390
     56 H24         0.2849    0.0122    1.9789 H         1 <0>         0.4214
@<TRIPOS>BOND
     1    1    2 1
     2    1   33 1
     3    1   34 1
     4    1   35 1
     5    2    3 1
     6    2   36 1
     7    2   37 1
     8    3    8 1
     9    3    4 1
    10    3   56 1
    11    4    5 1
    12    4   38 1
    13    4   39 1
    14    5    6 1
    15    5   40 1
    16    5   41 1
    17    6   12 1
    18    6    7 1
    19    6    9 1
    20    7    8 1
    21    7   42 1
    22    7   43 1
    23    8   44 1
    24    8   45 1
    25    9   10 2
    26   10   11 1
    27   10   26 1
    28   11   12 2
    29   11   13 1
    30   13   14 1
    31   14   15 1
    32   14   46 1
    33   14   47 1
    34   15   16 2
    35   15   17 am
    36   17   18 1
    37   17   48 1
    38   18   23 ar
    39   18   19 ar
    40   19   20 ar
    41   19   49 1
    42   20   21 ar
    43   20   25 1
    44   21   22 ar
    45   21   50 1
    46   22   23 ar
    47   22   51 1
    48   23   24 1
    49   26   31 ar
    50   26   27 ar
    51   27   28 ar
    52   27   52 1
    53   28   29 ar
    54   28   53 1
    55   29   30 ar
    56   29   32 1
    57   30   31 ar
    58   30   54 1
    59   31   55 1
@<TRIPOS>MOLECULE
ZINC00883367
   62    66     0     0     0
SMALL
USER_CHARGES
phenyl-(2,4,5-trimethoxyphenyl)-BLAHone
@<TRIPOS>ATOM
      1 C1         -1.5540    1.1816    5.3398 C.3       1 <0>         0.0291
      2 O1         -1.1005    2.5180    5.5640 O.3       1 <0>        -0.3060
      3 C2         -1.4254    3.4465    4.6238 C.ar      1 <0>         0.0618
      4 C3         -2.1641    3.0775    3.5116 C.ar      1 <0>        -0.1161
      5 C4         -2.4938    4.0199    2.5556 C.ar      1 <0>        -0.1054
      6 C5         -2.0818    5.3358    2.7054 C.ar      1 <0>         0.1509
      7 C6         -1.3471    5.7105    3.8201 C.ar      1 <0>        -0.2631
      8 C7         -1.0155    4.7670    4.7789 C.ar      1 <0>         0.1374
      9 O2         -0.2906    5.1312    5.8704 O.3       1 <0>        -0.3032
     10 C8          0.0960    6.5038    5.9640 C.3       1 <0>         0.0262
     11 O3         -2.4029    6.2601    1.7611 O.3       1 <0>        -0.3052
     12 C9         -1.9460    7.5963    1.9794 C.3       1 <0>         0.0268
     13 C10        -3.2966    3.6159    1.3460 C.3       1 <0>         0.2924
     14 H1         -4.0778    4.3594    1.1874 H         1 <0>         0.0988
     15 C11        -3.9526    2.2860    1.6297 C.2       1 <0>        -0.2989
     16 C12        -3.6289    1.1102    1.0653 C.2       1 <0>         0.2563
     17 C13        -4.3561   -0.1622    1.4672 C.3       1 <0>        -0.1010
     18 C14        -5.8086    0.1581    1.8161 C.3       1 <0>        -0.0388
     19 H2         -6.3064    0.6020    0.9540 H         1 <0>         0.0918
     20 C15        -5.7997    1.1536    2.9821 C.3       1 <0>        -0.1506
     21 C16        -4.9982    2.3550    2.5805 C.2       1 <0>         0.3943
     22 O4         -5.2557    3.4278    3.0906 O.2       1 <0>        -0.4628
     23 C17        -6.5252   -1.1025    2.2264 C.ar      1 <0>        -0.0803
     24 C18        -6.0747   -1.8320    3.3107 C.ar      1 <0>        -0.1146
     25 C19        -6.7350   -2.9858    3.6899 C.ar      1 <0>        -0.1166
     26 C20        -7.8397   -3.4155    2.9787 C.ar      1 <0>        -0.1201
     27 C21        -8.2868   -2.6891    1.8909 C.ar      1 <0>        -0.1168
     28 C22        -7.6297   -1.5325    1.5149 C.ar      1 <0>        -0.1121
     29 N1         -2.6574    0.9416    0.1334 N.pl3     1 <0>        -0.6831
     30 C23        -1.3771    1.4748    0.2183 C.ar      1 <0>         0.1146
     31 C24        -0.2484    0.6771    0.2976 C.ar      1 <0>        -0.1140
     32 C25         1.0033    1.2688    0.2875 C.ar      1 <0>        -0.1231
     33 C26         1.1253    2.6439    0.2040 C.ar      1 <0>        -0.1069
     34 C27        -0.0026    3.4444    0.1464 C.ar      1 <0>        -0.1238
     35 C28        -1.2560    2.8558    0.1731 C.ar      1 <0>         0.1764
     36 N2         -2.4216    3.6213    0.2031 N.pl3     1 <0>        -0.7601
     37 H3         -2.6425    1.1721    5.2827 H         1 <0>         0.0492
     38 H4         -1.1378    0.8088    4.4039 H         1 <0>         0.0502
     39 H5         -1.2277    0.5444    6.1618 H         1 <0>         0.1000
     40 H6         -2.4824    2.0525    3.3910 H         1 <0>         0.1330
     41 H7         -1.0296    6.7360    3.9385 H         1 <0>         0.1393
     42 H8          0.7102    6.7677    5.1031 H         1 <0>         0.0532
     43 H9         -0.7947    7.1318    5.9810 H         1 <0>         0.0538
     44 H10         0.6674    6.6587    6.8792 H         1 <0>         0.1018
     45 H11        -2.3623    7.9747    2.9131 H         1 <0>         0.0529
     46 H12        -0.8576    7.6032    2.0378 H         1 <0>         0.0520
     47 H13        -2.2697    8.2304    1.1540 H         1 <0>         0.1000
     48 H14        -4.3303   -0.8709    0.6394 H         1 <0>         0.0879
     49 H15        -3.8638   -0.6021    2.3345 H         1 <0>         0.0957
     50 H16        -6.7381    1.4258    3.1951 H         1 <0>         0.0884
     51 H17        -5.3497    0.6867    3.8583 H         1 <0>         0.0984
     52 H18        -5.2092   -1.4985    3.8638 H         1 <0>         0.1206
     53 H19        -6.3855   -3.5536    4.5396 H         1 <0>         0.1227
     54 H20        -8.3533   -4.3189    3.2727 H         1 <0>         0.1220
     55 H21        -9.1497   -3.0250    1.3350 H         1 <0>         0.1230
     56 H22        -7.9790   -0.9649    0.6650 H         1 <0>         0.1228
     57 H23        -2.8724    0.4104   -0.6493 H         1 <0>         0.4058
     58 H24        -0.3432   -0.3968    0.3623 H         1 <0>         0.1249
     59 H25         1.8889    0.6535    0.3454 H         1 <0>         0.1246
     60 H26         2.1060    3.0957    0.1839 H         1 <0>         0.1226
     61 H27         0.0939    4.5181    0.0815 H         1 <0>         0.1233
     62 H28        -2.6535    4.1666   -0.5648 H         1 <0>         0.3975
@<TRIPOS>BOND
     1    1    2 1
     2    1   37 1
     3    1   38 1
     4    1   39 1
     5    2    3 1
     6    3    8 ar
     7    3    4 ar
     8    4    5 ar
     9    4   40 1
    10    5    6 ar
    11    5   13 1
    12    6    7 ar
    13    6   11 1
    14    7    8 ar
    15    7   41 1
    16    8    9 1
    17    9   10 1
    18   10   42 1
    19   10   43 1
    20   10   44 1
    21   11   12 1
    22   12   45 1
    23   12   46 1
    24   12   47 1
    25   13   14 1
    26   13   36 1
    27   13   15 1
    28   15   21 1
    29   15   16 2
    30   16   17 1
    31   16   29 1
    32   17   18 1
    33   17   48 1
    34   17   49 1
    35   18   19 1
    36   18   20 1
    37   18   23 1
    38   20   21 1
    39   20   50 1
    40   20   51 1
    41   21   22 2
    42   23   28 ar
    43   23   24 ar
    44   24   25 ar
    45   24   52 1
    46   25   26 ar
    47   25   53 1
    48   26   27 ar
    49   26   54 1
    50   27   28 ar
    51   27   55 1
    52   28   56 1
    53   29   30 1
    54   29   57 1
    55   30   35 ar
    56   30   31 ar
    57   31   32 ar
    58   31   58 1
    59   32   33 ar
    60   32   59 1
    61   33   34 ar
    62   33   60 1
    63   34   35 ar
    64   34   61 1
    65   35   36 1
    66   36   62 1
@<TRIPOS>MOLECULE
ZINC12777085
   53    56     0     0     0
SMALL
USER_CHARGES
2-[(4R)-4-(4-bromophenyl)-4-methyl-2,5-dioxo-imidazolidin-1-yl]-N-[(1S)-1-(1-naphthyl)ethyl]acetamide
@<TRIPOS>ATOM
      1 C1         -2.3165    5.9402    1.4677 C.3       1 <0>        -0.1592
      2 C2         -2.4804    5.3795    0.0536 C.3       1 <0>         0.1838
      3 H1         -1.6516    5.7163   -0.5691 H         1 <0>         0.1026
      4 C3         -2.4881    3.8735    0.1081 C.ar      1 <0>        -0.0790
      5 C4         -3.6662    3.1984    0.2054 C.ar      1 <0>        -0.1115
      6 C5         -3.6932    1.8063    0.2572 C.ar      1 <0>        -0.1127
      7 C6         -2.5429    1.0805    0.2017 C.ar      1 <0>        -0.1021
      8 C7         -1.3083    1.7419    0.0905 C.ar      1 <0>        -0.0486
      9 C8         -1.2805    3.1584    0.0432 C.ar      1 <0>        -0.0401
     10 C9         -0.0459    3.8196   -0.0741 C.ar      1 <0>        -0.1112
     11 C10         1.1037    3.0937   -0.1347 C.ar      1 <0>        -0.1107
     12 C11         1.0767    1.7012   -0.0828 C.ar      1 <0>        -0.1137
     13 C12        -0.0998    1.0268    0.0305 C.ar      1 <0>        -0.1056
     14 N1         -3.7438    5.8540   -0.5165 N.am      1 <0>        -0.7209
     15 C13        -3.7893    7.0348   -1.1647 C.2       1 <0>         0.5054
     16 O1         -2.7843    7.7045   -1.2761 O.2       1 <0>        -0.5235
     17 C14        -5.0889    7.5229   -1.7511 C.3       1 <0>         0.0981
     18 N2         -4.8761    8.8200   -2.3979 N.am      1 <0>        -0.5592
     19 C15        -4.5278    8.9733   -3.6908 C.2       1 <0>         0.5426
     20 O2         -4.3375    8.0970   -4.5067 O.2       1 <0>        -0.4532
     21 C16        -4.4227   10.4691   -3.9123 C.3       1 <0>         0.1692
     22 N3         -4.7552   11.0384   -2.5950 N.am      1 <0>        -0.7150
     23 C17        -5.0092    9.9990   -1.7796 C.2       1 <0>         0.7122
     24 O3         -5.3213   10.1175   -0.6110 O.2       1 <0>        -0.5326
     25 C18        -2.9996   10.8540   -4.3214 C.3       1 <0>        -0.1454
     26 C19        -5.4156   10.9222   -4.9516 C.ar      1 <0>        -0.0830
     27 C20        -5.7929   10.0638   -5.9674 C.ar      1 <0>        -0.1030
     28 C21        -6.7070   10.4773   -6.9180 C.ar      1 <0>        -0.0840
     29 C22        -7.2365   11.7539   -6.8589 C.ar      1 <0>        -0.0822
     30 C23        -6.8546   12.6143   -5.8453 C.ar      1 <0>        -0.0875
     31 C24        -5.9444   12.1981   -4.8921 C.ar      1 <0>        -0.0899
     32 Br1        -8.4813   12.3228   -8.1637 Br        1 <0>        -0.0418
     33 H2         -3.1453    5.6034    2.0904 H         1 <0>         0.0624
     34 H3         -1.3765    5.5872    1.8918 H         1 <0>         0.0708
     35 H4         -2.3109    7.0295    1.4282 H         1 <0>         0.0673
     36 H5         -4.5934    3.7504    0.2513 H         1 <0>         0.1204
     37 H6         -4.6408    1.2954    0.3430 H         1 <0>         0.1266
     38 H7         -2.5791    0.0019    0.2426 H         1 <0>         0.1292
     39 H8         -0.0096    4.8982   -0.1162 H         1 <0>         0.1286
     40 H9          2.0510    3.6044   -0.2248 H         1 <0>         0.1252
     41 H10         2.0035    1.1490   -0.1336 H         1 <0>         0.1250
     42 H11        -0.1053   -0.0525    0.0697 H         1 <0>         0.1288
     43 H12        -4.5476    5.3184   -0.4274 H         1 <0>         0.4020
     44 H13        -5.4478    6.8041   -2.4877 H         1 <0>         0.1289
     45 H14        -5.8282    7.6296   -0.9574 H         1 <0>         0.1317
     46 H15        -4.7886   11.9794   -2.3619 H         1 <0>         0.4418
     47 H16        -2.7405   10.3504   -5.2527 H         1 <0>         0.0878
     48 H17        -2.9417   11.9332   -4.4636 H         1 <0>         0.0844
     49 H18        -2.3027   10.5528   -3.5393 H         1 <0>         0.0791
     50 H19        -5.3763    9.0685   -6.0158 H         1 <0>         0.1496
     51 H20        -7.0046    9.8053   -7.7094 H         1 <0>         0.1394
     52 H21        -7.2675   13.6112   -5.7990 H         1 <0>         0.1394
     53 H22        -5.6459   12.8699   -4.1009 H         1 <0>         0.1331
@<TRIPOS>BOND
     1    1    2 1
     2    1   33 1
     3    1   34 1
     4    1   35 1
     5    2    3 1
     6    2    4 1
     7    2   14 1
     8    4    9 ar
     9    4    5 ar
    10    5    6 ar
    11    5   36 1
    12    6    7 ar
    13    6   37 1
    14    7    8 ar
    15    7   38 1
    16    8   13 ar
    17    8    9 ar
    18    9   10 ar
    19   10   11 ar
    20   10   39 1
    21   11   12 ar
    22   11   40 1
    23   12   13 ar
    24   12   41 1
    25   13   42 1
    26   14   15 am
    27   14   43 1
    28   15   16 2
    29   15   17 1
    30   17   18 1
    31   17   44 1
    32   17   45 1
    33   18   23 am
    34   18   19 am
    35   19   20 2
    36   19   21 1
    37   21   22 1
    38   21   25 1
    39   21   26 1
    40   22   23 am
    41   22   46 1
    42   23   24 2
    43   25   47 1
    44   25   48 1
    45   25   49 1
    46   26   31 ar
    47   26   27 ar
    48   27   28 ar
    49   27   50 1
    50   28   29 ar
    51   28   51 1
    52   29   30 ar
    53   29   32 1
    54   30   31 ar
    55   30   52 1
    56   31   53 1
@<TRIPOS>MOLECULE
ZINC19912261
   36    37     0     0     0
SMALL
USER_CHARGES
4-bromo-N-[(1S)-2,2,2-trichloro-1-[(4-nitrophenyl)amino]ethyl]benzamide
@<TRIPOS>ATOM
      1 C1         -2.2775   -0.2784    0.7140 C.ar      1 <0>        -0.0774
      2 C2         -3.4772   -0.9243    0.9272 C.ar      1 <0>        -0.0968
      3 C3         -4.6432   -0.1928    1.0786 C.ar      1 <0>        -0.0632
      4 C4         -4.6117    1.1905    1.0229 C.ar      1 <0>        -0.0962
      5 C5         -3.4173    1.8480    0.8159 C.ar      1 <0>        -0.0480
      6 C6         -2.2384    1.1162    0.6625 C.ar      1 <0>        -0.1240
      7 C7         -0.9550    1.8148    0.4405 C.2       1 <0>         0.5780
      8 O1         -0.9245    3.0290    0.3912 O.2       1 <0>        -0.5186
      9 N1          0.1815    1.1056    0.2927 N.am      1 <0>        -0.7431
     10 C8          1.4527    1.7978    0.0667 C.3       1 <0>         0.3663
     11 H1          1.3075    2.8659    0.2859 H         1 <0>         0.1609
     12 C9          2.5357    1.1775    0.9517 C.3       1 <0>         0.1122
     13 Cl1         2.7206   -0.5683    0.5408 Cl        1 <0>        -0.0800
     14 Cl2         4.1002    2.0294    0.6735 Cl        1 <0>        -0.0556
     15 Cl3         2.0624    1.3404    2.6839 Cl        1 <0>        -0.0577
     16 N2          1.8373    1.6655   -1.3408 N.pl3     1 <0>        -0.7408
     17 C10         1.6882    2.7483   -2.2103 C.ar      1 <0>         0.2656
     18 C11         2.1610    2.6647   -3.5137 C.ar      1 <0>        -0.1823
     19 C12         2.0068    3.7352   -4.3726 C.ar      1 <0>        -0.0077
     20 C13         1.3928    4.8936   -3.9328 C.ar      1 <0>        -0.0967
     21 C14         0.9260    4.9823   -2.6341 C.ar      1 <0>        -0.0026
     22 C15         1.0719    3.9135   -1.7718 C.ar      1 <0>        -0.1922
     23 N3          1.2343    6.0408   -4.8543 N.pl3     1 <0>         0.0369
     24 O2          0.6934    7.0616   -4.4685 O.2       1 <0>        -0.1696
     25 O3          1.6449    5.9642   -5.9984 O.3       1 <0>        -0.1710
     26 Br1        -6.2852   -1.0866    1.3634 Br        1 <0>        -0.0339
     27 H2         -1.3694   -0.8501    0.5915 H         1 <0>         0.1331
     28 H3         -3.5080   -2.0029    0.9720 H         1 <0>         0.1427
     29 H4         -5.5244    1.7555    1.1421 H         1 <0>         0.1442
     30 H5         -3.3940    2.9269    0.7730 H         1 <0>         0.1486
     31 H6          0.1546    0.0070    0.3418 H         1 <0>         0.4261
     32 H7          2.2435    0.7133   -1.7128 H         1 <0>         0.4321
     33 H8          2.6447    1.7619   -3.8565 H         1 <0>         0.1467
     34 H9          2.3699    3.6691   -5.3875 H         1 <0>         0.1545
     35 H10         0.4466    5.8883   -2.2939 H         1 <0>         0.1539
     36 H11         0.7068    3.9833   -0.7577 H         1 <0>         0.1554
@<TRIPOS>BOND
     1    1    6 ar
     2    1    2 ar
     3    1   27 1
     4    2    3 ar
     5    2   28 1
     6    3    4 ar
     7    3   26 1
     8    4    5 ar
     9    4   29 1
    10    5    6 ar
    11    5   30 1
    12    6    7 1
    13    7    8 2
    14    7    9 am
    15    9   10 1
    16    9   31 1
    17   10   11 1
    18   10   12 1
    19   10   16 1
    20   12   13 1
    21   12   14 1
    22   12   15 1
    23   16   17 1
    24   16   32 1
    25   17   22 ar
    26   17   18 ar
    27   18   19 ar
    28   18   33 1
    29   19   20 ar
    30   19   34 1
    31   20   21 ar
    32   20   23 1
    33   21   22 ar
    34   21   35 1
    35   22   36 1
    36   23   24 2
    37   23   25 1
@<TRIPOS>MOLECULE
ZINC27569264
   45    46     0     0     0
SMALL
USER_CHARGES
4-chloro-N-isopropyl-N-methyl-3-[[(2,4,6-trichlorophenyl)amino]carbamoyl]benzenesulfonamide
@<TRIPOS>ATOM
      1 C1          1.0531    2.1555    0.2598 C.3       1 <0>        -0.1622
      2 C2         -0.3327    1.5145    0.3576 C.3       1 <0>         0.1378
      3 C3         -1.2339    2.0774   -0.7432 C.3       1 <0>        -0.1671
      4 N1         -0.2121    0.0635    0.1957 N.pl3     1 <0>        -0.9936
      5 C4          0.3483   -0.4917   -1.0388 C.3       1 <0>         0.0753
      6 S1         -0.7092   -0.9491    1.4081 S.o2      1 <0>         2.6870
      7 O1          0.0073   -2.1649    1.2412 O.2       1 <0>        -0.9464
      8 O2         -0.6611   -0.1956    2.6119 O.2       1 <0>        -0.9444
      9 C5         -2.4063   -1.3203    1.1138 C.ar      1 <0>        -0.6839
     10 C6         -3.3932   -0.5204    1.6635 C.ar      1 <0>         0.0192
     11 C7         -4.7275   -0.8011    1.4340 C.ar      1 <0>        -0.1332
     12 C8         -5.0843   -1.8898    0.6619 C.ar      1 <0>         0.0661
     13 C9         -4.0929   -2.7039    0.1088 C.ar      1 <0>        -0.1368
     14 C10        -2.7478   -2.4103    0.3411 C.ar      1 <0>         0.0204
     15 C11        -4.4661   -3.8700   -0.7186 C.2       1 <0>         0.5544
     16 O3         -5.6380   -4.1230   -0.9190 O.2       1 <0>        -0.5135
     17 N2         -3.5070   -4.6530   -1.2510 N.am      1 <0>        -0.5233
     18 N3         -3.8608   -5.7586   -2.0355 N.pl3     1 <0>        -0.5464
     19 C12        -2.8729   -6.6390   -2.4894 C.ar      1 <0>         0.2323
     20 C13        -2.9889   -7.2296   -3.7417 C.ar      1 <0>        -0.0712
     21 C14        -2.0090   -8.0957   -4.1893 C.ar      1 <0>        -0.0508
     22 C15        -0.9181   -8.3822   -3.3876 C.ar      1 <0>        -0.0581
     23 C16        -0.8023   -7.7996   -2.1378 C.ar      1 <0>        -0.0506
     24 C17        -1.7765   -6.9290   -1.6866 C.ar      1 <0>        -0.0889
     25 Cl1        -1.6302   -6.1982   -0.1188 Cl        1 <0>        -0.0342
     26 Cl2         0.3075   -9.4751   -3.9507 Cl        1 <0>        -0.0438
     27 Cl3        -4.3601   -6.8755   -4.7458 Cl        1 <0>        -0.0357
     28 Cl4        -6.7600   -2.2449    0.3794 Cl        1 <0>        -0.0058
     29 H1          1.7010    1.7507    1.0513 H         1 <0>         0.0630
     30 H2          0.9625    3.2450    0.3815 H         1 <0>         0.0728
     31 H3          1.4921    1.9316   -0.7237 H         1 <0>         0.0646
     32 H4         -0.7738    1.6946    1.3491 H         1 <0>         0.1007
     33 H5         -2.2302    1.6165   -0.6728 H         1 <0>         0.0589
     34 H6         -0.7949    1.8535   -1.7267 H         1 <0>         0.0656
     35 H7         -1.3245    3.1669   -0.6215 H         1 <0>         0.0729
     36 H8          0.3581   -1.5898   -0.9756 H         1 <0>         0.0857
     37 H9          1.3759   -0.1230   -1.1733 H         1 <0>         0.0744
     38 H10        -0.2684   -0.1792   -1.8944 H         1 <0>         0.0665
     39 H11        -3.1196    0.3293    2.2715 H         1 <0>         0.1576
     40 H12        -5.4924   -0.1705    1.8625 H         1 <0>         0.1563
     41 H13        -1.9763   -3.0357   -0.0832 H         1 <0>         0.1415
     42 H14        -2.4465   -4.4241   -1.0696 H         1 <0>         0.4389
     43 H15        -4.9153   -5.9343   -2.2945 H         1 <0>         0.4684
     44 H16        -2.0969   -8.5525   -5.1640 H         1 <0>         0.1550
     45 H17         0.0499   -8.0257   -1.5141 H         1 <0>         0.1544
@<TRIPOS>BOND
     1    1    2 1
     2    1   29 1
     3    1   30 1
     4    1   31 1
     5    2    3 1
     6    2    4 1
     7    2   32 1
     8    3   33 1
     9    3   34 1
    10    3   35 1
    11    4    5 1
    12    4    6 1
    13    5   36 1
    14    5   37 1
    15    5   38 1
    16    6    7 2
    17    6    8 2
    18    6    9 1
    19    9   14 ar
    20    9   10 ar
    21   10   11 ar
    22   10   39 1
    23   11   12 ar
    24   11   40 1
    25   12   13 ar
    26   12   28 1
    27   13   14 ar
    28   13   15 1
    29   14   41 1
    30   15   16 2
    31   15   17 am
    32   17   18 1
    33   17   42 1
    34   18   19 1
    35   18   43 1
    36   19   24 ar
    37   19   20 ar
    38   20   21 ar
    39   20   27 1
    40   21   22 ar
    41   21   44 1
    42   22   23 ar
    43   22   26 1
    44   23   24 ar
    45   23   45 1
    46   24   25 1
@<TRIPOS>MOLECULE
ZINC39914925
   57    60     0     0     0
SMALL
USER_CHARGES

@<TRIPOS>ATOM
      1 C1         -0.7262    1.0443   -0.8167 C.3       1 <0>        -0.1245
      2 C2         -0.5879   -0.4444   -0.6271 C.ar      1 <0>        -0.0469
      3 C3         -1.5080   -1.2999   -1.2036 C.ar      1 <0>        -0.1354
      4 C4         -1.3854   -2.6690   -1.0318 C.ar      1 <0>         0.1471
      5 C5         -0.3285   -3.1822   -0.2745 C.ar      1 <0>        -0.0336
      6 C6          0.5936   -2.3128    0.3018 C.ar      1 <0>        -0.0671
      7 C7          0.4632   -0.9495    0.1187 C.ar      1 <0>        -0.0472
      8 Cl1         1.6170    0.1337    0.8322 Cl        1 <0>        -0.0575
      9 C8         -0.1901   -4.6476   -0.0852 C.2       1 <0>         0.1232
     10 C9          0.0602   -5.3066    1.1232 C.2       1 <0>        -0.1685
     11 C10         0.1067   -6.6528    0.8154 C.2       1 <0>        -0.0577
     12 N1         -0.1121   -6.7423   -0.5300 N.pl3     1 <0>        -0.3305
     13 H1         -0.1372   -7.5692   -1.0364 H         1 <0>         0.4544
     14 N2         -0.2861   -5.5684   -1.0241 N.2       1 <0>        -0.2372
     15 C11         0.3672   -7.4045    2.0481 C.2       1 <0>         0.5992
     16 O1          0.4667   -8.6148    2.1154 O.2       1 <0>        -0.5125
     17 N3          0.4807   -6.5654    3.0934 N.am      1 <0>        -0.5944
     18 C12         0.2995   -5.1926    2.6038 C.3       1 <0>         0.2515
     19 H2          1.1971   -4.6044    2.7946 H         1 <0>         0.1138
     20 C13        -0.8908   -4.5562    3.2741 C.ar      1 <0>        -0.1081
     21 C14        -2.0560   -5.2802    3.4451 C.ar      1 <0>        -0.0646
     22 C15        -3.1481   -4.6978    4.0600 C.ar      1 <0>        -0.1516
     23 C16        -3.0748   -3.3887    4.5049 C.ar      1 <0>         0.1086
     24 C17        -1.9072   -2.6646    4.3331 C.ar      1 <0>        -0.1495
     25 C18        -0.8147   -3.2508    3.7226 C.ar      1 <0>        -0.0685
     26 F1         -4.1419   -2.8182    5.1058 F         1 <0>        -0.1368
     27 C19         0.7405   -6.9542    4.4818 C.3       1 <0>         0.1421
     28 C20         2.2502   -6.9860    4.7285 C.3       1 <0>        -0.1382
     29 C21         2.5216   -7.3920    6.1785 C.3       1 <0>         0.0658
     30 O2          3.9315   -7.4217    6.4089 O.3       1 <0>        -0.3820
     31 C22         4.2952   -7.7917    7.7404 C.3       1 <0>         0.0817
     32 C23         4.4603   -9.3106    7.8206 C.3       1 <0>        -0.1769
     33 C24         5.6151   -7.1147    8.1153 C.3       1 <0>        -0.1510
     34 O3         -2.2901   -3.5105   -1.5974 O.3       1 <0>        -0.4872
     35 H3         -0.1833    1.3486   -1.7115 H         1 <0>         0.0807
     36 H4         -1.7800    1.3002   -0.9265 H         1 <0>         0.0747
     37 H5         -0.3154    1.5607    0.0509 H         1 <0>         0.0779
     38 H6         -2.3236   -0.9005   -1.7881 H         1 <0>         0.1429
     39 H7          1.4120   -2.7037    0.8881 H         1 <0>         0.1396
     40 H8         -2.1131   -6.3012    3.0977 H         1 <0>         0.1262
     41 H9         -4.0584   -5.2635    4.1932 H         1 <0>         0.1371
     42 H10        -1.8490   -1.6433    4.6795 H         1 <0>         0.1397
     43 H11         0.0976   -2.6876    3.5925 H         1 <0>         0.1364
     44 H12         0.2777   -6.2318    5.1541 H         1 <0>         0.0921
     45 H13         0.3212   -7.9431    4.6667 H         1 <0>         0.0937
     46 H14         2.7131   -7.7084    4.0562 H         1 <0>         0.0786
     47 H15         2.6695   -5.9970    4.5436 H         1 <0>         0.0774
     48 H16         2.0587   -6.6696    6.8508 H         1 <0>         0.0517
     49 H17         2.1022   -8.3810    6.3634 H         1 <0>         0.0516
     50 H18         3.5147   -7.4740    8.4318 H         1 <0>         0.0601
     51 H19         5.2408   -9.6283    7.1293 H         1 <0>         0.0643
     52 H20         4.7377   -9.5928    8.8363 H         1 <0>         0.0660
     53 H21         3.5200   -9.7929    7.5535 H         1 <0>         0.0562
     54 H22         5.4974   -6.0326    8.0582 H         1 <0>         0.0614
     55 H23         5.8925   -7.3969    9.1310 H         1 <0>         0.0700
     56 H24         6.3956   -7.4324    7.4240 H         1 <0>         0.0639
     57 H25        -2.0535   -3.8007   -2.4890 H         1 <0>         0.3970
@<TRIPOS>BOND
     1    1    2 1
     2    1   35 1
     3    1   36 1
     4    1   37 1
     5    2    7 ar
     6    2    3 ar
     7    3    4 ar
     8    3   38 1
     9    4    5 ar
    10    4   34 1
    11    5    6 ar
    12    5    9 1
    13    6    7 ar
    14    6   39 1
    15    7    8 1
    16    9   14 2
    17    9   10 1
    18   10   18 1
    19   10   11 2
    20   11   12 1
    21   11   15 1
    22   12   13 1
    23   12   14 1
    24   15   16 2
    25   15   17 am
    26   17   18 1
    27   17   27 1
    28   18   19 1
    29   18   20 1
    30   20   25 ar
    31   20   21 ar
    32   21   22 ar
    33   21   40 1
    34   22   23 ar
    35   22   41 1
    36   23   24 ar
    37   23   26 1
    38   24   25 ar
    39   24   42 1
    40   25   43 1
    41   27   28 1
    42   27   44 1
    43   27   45 1
    44   28   29 1
    45   28   46 1
    46   28   47 1
    47   29   30 1
    48   29   48 1
    49   29   49 1
    50   30   31 1
    51   31   32 1
    52   31   33 1
    53   31   50 1
    54   32   51 1
    55   32   52 1
    56   32   53 1
    57   33   54 1
    58   33   55 1
    59   33   56 1
    60   34   57 1
@<TRIPOS>MOLECULE
ZINC04282957
   47    49     0     0     0
SMALL
USER_CHARGES
[4-bromo-2-[(4-hydroxybenzoyl)aminoiminomethyl]phenyl] 3-phenylprop-2-enoate
@<TRIPOS>ATOM
      1 C1         -4.0711    6.5289    2.5075 C.ar      1 <0>        -0.1065
      2 C2         -3.4846    6.0762    3.6765 C.ar      1 <0>        -0.1246
      3 C3         -2.2349    5.4942    3.6447 C.ar      1 <0>        -0.0942
      4 C4         -1.5602    5.3616    2.4268 C.ar      1 <0>        -0.0745
      5 C5         -2.1576    5.8260    1.2506 C.ar      1 <0>        -0.0902
      6 C6         -3.4098    6.4012    1.2983 C.ar      1 <0>        -0.1231
      7 C7         -0.2260    4.7421    2.3841 C.2       1 <0>        -0.0115
      8 C8          0.4219    4.6159    1.2072 C.2       1 <0>        -0.1622
      9 C9          1.7475    4.0005    1.1648 C.2       1 <0>         0.5221
     10 O1          2.2663    3.6023    2.1904 O.2       1 <0>        -0.5052
     11 O2          2.3952    3.8743   -0.0119 O.3       1 <0>        -0.2776
     12 C10         3.6660    3.3951    0.0079 C.ar      1 <0>         0.1422
     13 C11         4.7390    4.2707    0.0433 C.ar      1 <0>        -0.1192
     14 C12         6.0318    3.7826    0.0577 C.ar      1 <0>        -0.0589
     15 C13         6.2653    2.4172    0.0418 C.ar      1 <0>        -0.0945
     16 C14         5.2079    1.5312    0.0124 C.ar      1 <0>        -0.0483
     17 C15         3.8968    2.0126   -0.0019 C.ar      1 <0>        -0.0517
     18 C16         2.7626    1.0722   -0.0333 C.2       1 <0>         0.1041
     19 N1          1.5454    1.5235   -0.0466 N.2       1 <0>        -0.2093
     20 N2          0.4671    0.6296   -0.0764 N.am      1 <0>        -0.5793
     21 C17        -0.7964    1.0982   -0.0958 C.2       1 <0>         0.5784
     22 O3         -1.0006    2.2971   -0.0823 O.2       1 <0>        -0.4861
     23 C18        -1.9319    0.1567   -0.1334 C.ar      1 <0>        -0.1451
     24 C19        -1.6993   -1.2212   -0.1548 C.ar      1 <0>        -0.0695
     25 C20        -2.7619   -2.0965   -0.1850 C.ar      1 <0>        -0.1522
     26 C21        -4.0642   -1.6111   -0.2054 C.ar      1 <0>         0.1398
     27 C22        -4.2998   -0.2413   -0.1890 C.ar      1 <0>        -0.1518
     28 C23        -3.2429    0.6406   -0.1535 C.ar      1 <0>        -0.0342
     29 O4         -5.1087   -2.4770   -0.2409 O.3       1 <0>        -0.4968
     30 Br1         8.0402    1.7649    0.0612 Br        1 <0>        -0.0336
     31 H1         -5.0501    6.9838    2.5389 H         1 <0>         0.1242
     32 H2         -4.0069    6.1793    4.6161 H         1 <0>         0.1259
     33 H3         -1.7786    5.1414    4.5577 H         1 <0>         0.1265
     34 H4         -1.6411    5.7308    0.3069 H         1 <0>         0.1298
     35 H5         -3.8741    6.7569    0.3904 H         1 <0>         0.1261
     36 H6          0.2347    4.3886    3.2947 H         1 <0>         0.1328
     37 H7         -0.0387    4.9695    0.2966 H         1 <0>         0.1428
     38 H8          4.5650    5.3365    0.0551 H         1 <0>         0.1462
     39 H9          6.8649    4.4696    0.0811 H         1 <0>         0.1464
     40 H10         5.3937    0.4674    0.0008 H         1 <0>         0.1476
     41 H11         2.9439    0.0076   -0.0453 H         1 <0>         0.1299
     42 H12         0.6300   -0.3266   -0.0872 H         1 <0>         0.3861
     43 H13        -0.6876   -1.5990   -0.1439 H         1 <0>         0.1280
     44 H14        -2.5831   -3.1615   -0.1974 H         1 <0>         0.1382
     45 H15        -5.3132    0.1318   -0.2046 H         1 <0>         0.1401
     46 H16        -3.4268    1.7048   -0.1408 H         1 <0>         0.1444
     47 H17        -5.3927   -2.7142   -1.1342 H         1 <0>         0.3985
@<TRIPOS>BOND
     1    1    6 ar
     2    1    2 ar
     3    1   31 1
     4    2    3 ar
     5    2   32 1
     6    3    4 ar
     7    3   33 1
     8    4    5 ar
     9    4    7 1
    10    5    6 ar
    11    5   34 1
    12    6   35 1
    13    7    8 2
    14    7   36 1
    15    8    9 1
    16    8   37 1
    17    9   10 2
    18    9   11 1
    19   11   12 1
    20   12   17 ar
    21   12   13 ar
    22   13   14 ar
    23   13   38 1
    24   14   15 ar
    25   14   39 1
    26   15   16 ar
    27   15   30 1
    28   16   17 ar
    29   16   40 1
    30   17   18 1
    31   18   19 2
    32   18   41 1
    33   19   20 1
    34   20   21 am
    35   20   42 1
    36   21   22 2
    37   21   23 1
    38   23   28 ar
    39   23   24 ar
    40   24   25 ar
    41   24   43 1
    42   25   26 ar
    43   25   44 1
    44   26   27 ar
    45   26   29 1
    46   27   28 ar
    47   27   45 1
    48   28   46 1
    49   29   47 1
@<TRIPOS>MOLECULE
ZINC09367446
   47    50     0     0     0
SMALL
USER_CHARGES
3-(p-tolyl)-N-[4-(thiazol-2-ylsulfamoyl)phenyl]thiophene-2-carboxamide
@<TRIPOS>ATOM
      1 C1          6.2966   -0.7201   -1.1740 C.3       1 <0>        -0.1180
      2 C2          4.9609   -0.0595   -0.9490 C.ar      1 <0>        -0.0721
      3 C3          4.1090   -0.5431    0.0278 C.ar      1 <0>        -0.1287
      4 C4          2.8846    0.0573    0.2382 C.ar      1 <0>        -0.0933
      5 C5          2.5067    1.1541   -0.5359 C.ar      1 <0>        -0.0609
      6 C6          3.3679    1.6340   -1.5224 C.ar      1 <0>        -0.0497
      7 C7          4.5916    1.0279   -1.7204 C.ar      1 <0>        -0.1238
      8 C8          1.1933    1.8030   -0.3154 C.2       1 <0>         0.0231
      9 C9          0.0203    1.0709   -0.2599 C.2       1 <0>        -0.1685
     10 C10        -1.1536    1.7171   -0.0614 C.2       1 <0>        -0.1677
     11 S1         -0.6844    3.3802    0.0690 S.3       1 <0>         0.1464
     12 C11         1.0749    3.1865   -0.1532 C.2       1 <0>        -0.2519
     13 C12         2.1210    4.2088   -0.1634 C.2       1 <0>         0.6055
     14 O1          3.2835    3.8885   -0.3313 O.2       1 <0>        -0.4826
     15 N1          1.7979    5.5053    0.0130 N.am      1 <0>        -0.6731
     16 C13         2.8055    6.4695    0.1136 C.ar      1 <0>         0.2140
     17 C14         4.0178    6.1496    0.7114 C.ar      1 <0>        -0.1460
     18 C15         5.0127    7.1028    0.8049 C.ar      1 <0>         0.0282
     19 C16         4.7992    8.3777    0.3135 C.ar      1 <0>        -0.6924
     20 C17         3.5916    8.7010   -0.2776 C.ar      1 <0>         0.0029
     21 C18         2.5944    7.7509   -0.3790 C.ar      1 <0>        -0.1712
     22 S2          6.0686    9.5930    0.4413 S.o2      1 <0>         2.6885
     23 O2          7.2977    8.8873    0.5431 O.2       1 <0>        -0.9191
     24 O3          5.8209   10.5481   -0.5813 O.2       1 <0>        -0.9400
     25 N2          5.8522   10.3772    1.8837 N.pl3     1 <0>        -0.9916
     26 C19         6.0036    9.6880    3.0768 C.2       1 <0>         0.3157
     27 N3          6.3081    8.4186    3.2679 N.2       1 <0>        -0.5438
     28 C20         6.4176    7.9185    4.4845 C.2       1 <0>         0.0645
     29 C21         6.1990    8.7368    5.5413 C.2       1 <0>        -0.2270
     30 S3          5.8338   10.2720    4.7033 S.3       1 <0>         0.0774
     31 H1          6.1900   -1.5120   -1.9153 H         1 <0>         0.0717
     32 H2          7.0120    0.0197   -1.5330 H         1 <0>         0.0678
     33 H3          6.6539   -1.1459   -0.2363 H         1 <0>         0.0670
     34 H4          4.4027   -1.3925    0.6267 H         1 <0>         0.1234
     35 H5          2.2200   -0.3216    1.0006 H         1 <0>         0.1213
     36 H6          3.0790    2.4805   -2.1277 H         1 <0>         0.1188
     37 H7          5.2607    1.4008   -2.4817 H         1 <0>         0.1227
     38 H8          0.0400   -0.0024   -0.3779 H         1 <0>         0.1461
     39 H9         -2.1460    1.2957    0.0024 H         1 <0>         0.1960
     40 H10         0.8663    5.7696    0.0702 H         1 <0>         0.4131
     41 H11         4.1834    5.1554    1.0995 H         1 <0>         0.1455
     42 H12         5.9570    6.8536    1.2660 H         1 <0>         0.1546
     43 H13         3.4282    9.6974   -0.6607 H         1 <0>         0.1455
     44 H14         1.6516    8.0039   -0.8411 H         1 <0>         0.1381
     45 H15         5.6195   11.3188    1.8937 H         1 <0>         0.4429
     46 H16         6.6712    6.8793    4.6338 H         1 <0>         0.1788
     47 H17         6.2352    8.5209    6.5989 H         1 <0>         0.2019
@<TRIPOS>BOND
     1    1    2 1
     2    1   31 1
     3    1   32 1
     4    1   33 1
     5    2    7 ar
     6    2    3 ar
     7    3    4 ar
     8    3   34 1
     9    4    5 ar
    10    4   35 1
    11    5    6 ar
    12    5    8 1
    13    6    7 ar
    14    6   36 1
    15    7   37 1
    16    8   12 2
    17    8    9 1
    18    9   10 2
    19    9   38 1
    20   10   11 1
    21   10   39 1
    22   11   12 1
    23   12   13 1
    24   13   14 2
    25   13   15 am
    26   15   16 1
    27   15   40 1
    28   16   21 ar
    29   16   17 ar
    30   17   18 ar
    31   17   41 1
    32   18   19 ar
    33   18   42 1
    34   19   20 ar
    35   19   22 1
    36   20   21 ar
    37   20   43 1
    38   21   44 1
    39   22   23 2
    40   22   24 2
    41   22   25 1
    42   25   26 1
    43   25   45 1
    44   26   30 1
    45   26   27 2
    46   27   28 1
    47   28   29 2
    48   28   46 1
    49   29   30 1
    50   29   47 1
@<TRIPOS>MOLECULE
ZINC16953610
   54    58     0     0     0
SMALL
USER_CHARGES

@<TRIPOS>ATOM
      1 C1         -0.0173    1.4248    0.0099 C.3       1 <0>         0.0303
      2 O1          0.0021   -0.0041    0.0020 O.3       1 <0>        -0.3247
      3 C2         -1.2003   -0.6375    0.0101 C.ar      1 <0>         0.1055
      4 C3         -2.3746    0.1011    0.0195 C.ar      1 <0>        -0.2088
      5 C4         -3.5956   -0.5451    0.0272 C.ar      1 <0>        -0.0466
      6 C5         -3.6478   -1.9268    0.0260 C.ar      1 <0>        -0.0651
      7 C6         -2.4788   -2.6651    0.0172 C.ar      1 <0>        -0.0749
      8 C7         -1.2554   -2.0237    0.0032 C.ar      1 <0>        -0.1589
      9 C8         -4.9811   -2.6292    0.0350 C.3       1 <0>         0.1069
     10 H1         -5.7766   -1.8840    0.0416 H         1 <0>         0.0806
     11 C9         -5.0850   -3.4687    1.2723 C.ar      1 <0>        -0.3130
     12 C10        -4.9068   -4.8450    1.2129 C.ar      1 <0>         0.4030
     13 N1         -5.0021   -5.5626    2.3273 N.ar      1 <0>        -0.6106
     14 C11        -5.2663   -4.9746    3.4861 C.ar      1 <0>         0.3568
     15 N2         -5.4429   -3.6645    3.5788 N.ar      1 <0>        -0.6176
     16 C12        -5.3604   -2.8864    2.5035 C.ar      1 <0>         0.4684
     17 O2         -5.5416   -1.5472    2.6069 O.3       1 <0>        -0.6732
     18 S1         -5.3860   -5.9612    4.9410 S.3       1 <0>        -0.0375
     19 C13        -5.7505   -4.7642    6.2543 C.3       1 <0>        -0.0597
     20 C14        -5.8798   -5.4864    7.5706 C.ar      1 <0>        -0.1008
     21 C15        -7.1102   -5.9667    7.9777 C.ar      1 <0>        -0.0730
     22 C16        -7.2291   -6.6292    9.1850 C.ar      1 <0>        -0.1323
     23 C17        -6.1176   -6.8123    9.9868 C.ar      1 <0>        -0.0913
     24 C18        -4.8864   -6.3334    9.5816 C.ar      1 <0>        -0.1571
     25 C19        -4.7651   -5.6741    8.3699 C.ar      1 <0>         0.1162
     26 F1         -3.5610   -5.2096    7.9706 F         1 <0>        -0.1304
     27 N3         -4.6368   -5.4494   -0.0030 N.pl3     1 <0>        -0.6297
     28 C20        -4.9231   -4.8072   -1.1765 C.2       1 <0>         0.2314
     29 C21        -5.1038   -3.4710   -1.2101 C.2       1 <0>        -0.2916
     30 C22        -5.4169   -2.8157   -2.4141 C.2       1 <0>         0.4010
     31 C23        -5.5691   -3.5757   -3.7025 C.3       1 <0>        -0.1669
     32 C24        -6.0324   -5.0020   -3.3882 C.3       1 <0>        -0.1076
     33 C25        -5.0252   -5.6372   -2.4335 C.3       1 <0>        -0.0959
     34 O3         -5.5680   -1.6099   -2.4132 O.2       1 <0>        -0.4775
     35 H2          1.0053    1.8021    0.0021 H         1 <0>         0.0929
     36 H3         -0.5445    1.7859   -0.8732 H         1 <0>         0.0515
     37 H4         -0.5275    1.7763    0.9067 H         1 <0>         0.0526
     38 H5         -2.3343    1.1803    0.0211 H         1 <0>         0.1198
     39 H6         -4.5101    0.0294    0.0345 H         1 <0>         0.1224
     40 H7         -2.5223   -3.7443    0.0166 H         1 <0>         0.1144
     41 H8         -0.3427   -2.6008   -0.0082 H         1 <0>         0.1197
     42 H9         -4.9416   -4.0363    6.3172 H         1 <0>         0.1036
     43 H10        -6.6849   -4.2503    6.0285 H         1 <0>         0.1063
     44 H11        -7.9792   -5.8240    7.3525 H         1 <0>         0.1364
     45 H12        -8.1910   -7.0039    9.5025 H         1 <0>         0.1299
     46 H13        -6.2118   -7.3295   10.9302 H         1 <0>         0.1309
     47 H14        -4.0184   -6.4762   10.2082 H         1 <0>         0.1351
     48 H15        -6.3095   -3.0821   -4.3319 H         1 <0>         0.0904
     49 H16        -4.6112   -3.6094   -4.2215 H         1 <0>         0.0951
     50 H17        -7.0152   -4.9726   -2.9179 H         1 <0>         0.0732
     51 H18        -6.0808   -5.5828   -4.3093 H         1 <0>         0.0806
     52 H19        -4.0493   -5.6860   -2.9165 H         1 <0>         0.0943
     53 H20        -5.3538   -6.6445   -2.1776 H         1 <0>         0.0872
     54 H21        -4.2419   -6.3352   -0.0230 H         1 <0>         0.4089
@<TRIPOS>BOND
     1    1    2 1
     2    1   35 1
     3    1   36 1
     4    1   37 1
     5    2    3 1
     6    3    8 ar
     7    3    4 ar
     8    4    5 ar
     9    4   38 1
    10    5    6 ar
    11    5   39 1
    12    6    7 ar
    13    6    9 1
    14    7    8 ar
    15    7   40 1
    16    8   41 1
    17    9   10 1
    18    9   11 1
    19    9   29 1
    20   11   16 ar
    21   11   12 ar
    22   12   13 ar
    23   12   27 1
    24   13   14 ar
    25   14   15 ar
    26   14   18 1
    27   15   16 ar
    28   16   17 1
    29   18   19 1
    30   19   20 1
    31   19   42 1
    32   19   43 1
    33   20   25 ar
    34   20   21 ar
    35   21   22 ar
    36   21   44 1
    37   22   23 ar
    38   22   45 1
    39   23   24 ar
    40   23   46 1
    41   24   25 ar
    42   24   47 1
    43   25   26 1
    44   27   28 1
    45   27   54 1
    46   28   29 2
    47   28   33 1
    48   29   30 1
    49   30   34 2
    50   30   31 1
    51   31   32 1
    52   31   48 1
    53   31   49 1
    54   32   33 1
    55   32   50 1
    56   32   51 1
    57   33   52 1
    58   33   53 1
@<TRIPOS>MOLECULE
ZINC32948489
   48    51     0     0     0
SMALL
USER_CHARGES
N-(5-fluoro-2-methyl-phenyl)-2-[[3-(o-tolyl)-7-oxo-2-thioxo-6H-thiazolo[4,5-d]pyrimidin-5-yl]sulfanyl]acetamide
@<TRIPOS>ATOM
      1 C1          8.3711    6.0251    2.0497 C.3       1 <0>        -0.1254
      2 C2          8.2332    5.1866    0.8051 C.ar      1 <0>        -0.0444
      3 C3          8.1115    3.8143    0.9059 C.ar      1 <0>        -0.1113
      4 C4          7.9902    3.0439   -0.2357 C.ar      1 <0>        -0.0905
      5 C5          7.9855    3.6445   -1.4815 C.ar      1 <0>        -0.1142
      6 C6          8.1016    5.0164   -1.5886 C.ar      1 <0>        -0.0783
      7 C7          8.2231    5.7930   -0.4437 C.ar      1 <0>         0.0880
      8 N1          8.3409    7.1850   -0.5491 N.pl3     1 <0>        -0.4088
      9 C8          7.2100    7.9628   -0.5450 C.2       1 <0>         0.3933
     10 C9          7.4116    9.3402   -0.6537 C.2       1 <0>        -0.3513
     11 C10         6.3528   10.2384   -0.6613 C.2       1 <0>         0.5964
     12 O1          6.5506   11.4391   -0.7573 O.2       1 <0>        -0.5031
     13 N2          5.0940    9.7465   -0.5651 N.am      1 <0>        -0.6284
     14 H1          4.2334   10.4315   -0.5768 H         1 <0>         0.4667
     15 C11         4.9199    8.3989   -0.4548 C.2       1 <0>         0.3971
     16 N3          5.9204    7.5544   -0.4477 N.2       1 <0>        -0.5407
     17 S1          3.2803    7.7671   -0.3236 S.3       1 <0>         0.1163
     18 C12         3.6340    5.9952   -0.2167 C.3       1 <0>        -0.1523
     19 C13         2.3407    5.2313   -0.0944 C.2       1 <0>         0.5337
     20 O2          1.2839    5.8263   -0.0809 O.2       1 <0>        -0.5022
     21 N4          2.3584    3.8869   -0.0000 N.am      1 <0>        -0.6699
     22 C14         1.1571    3.1695   -0.0029 C.ar      1 <0>         0.1795
     23 C15         0.0250    3.7112   -0.5971 C.ar      1 <0>        -0.1679
     24 C16        -1.1607    2.9990   -0.5985 C.ar      1 <0>         0.1174
     25 C17        -1.2166    1.7448   -0.0129 C.ar      1 <0>        -0.1667
     26 C18        -0.0916    1.2073    0.5838 C.ar      1 <0>        -0.0686
     27 C19         1.0951    1.9144    0.5880 C.ar      1 <0>        -0.1250
     28 C20         2.3223    1.3236    1.2331 C.3       1 <0>        -0.1168
     29 F1         -2.2632    3.5244   -1.1761 F         1 <0>        -0.1346
     30 S2          9.1775    9.4845   -0.7566 S.3       1 <0>         0.2088
     31 C21         9.5642    7.7435   -0.6527 C.2       1 <0>         0.2475
     32 S3         11.0960    6.9793   -0.6778 S.2       1 <0>        -0.3656
     33 H2          8.3585    5.3722    2.9349 H         1 <0>         0.0798
     34 H3          7.5342    6.7367    2.1070 H         1 <0>         0.0656
     35 H4          9.3212    6.5784    2.0156 H         1 <0>         0.0743
     36 H5          8.1148    3.3424    1.8774 H         1 <0>         0.1345
     37 H6          7.8993    1.9708   -0.1545 H         1 <0>         0.1331
     38 H7          7.8914    3.0400   -2.3715 H         1 <0>         0.1343
     39 H8          8.0982    5.4848   -2.5617 H         1 <0>         0.1250
     40 H9          4.1663    5.6722   -1.1235 H         1 <0>         0.1408
     41 H10         4.2607    5.7990    0.6658 H         1 <0>         0.1397
     42 H11         3.3173    3.3537    0.0793 H         1 <0>         0.4427
     43 H12         0.0703    4.6869   -1.0577 H         1 <0>         0.1569
     44 H13        -2.1419    1.1878   -0.0189 H         1 <0>         0.1381
     45 H14        -0.1393    0.2312    1.0435 H         1 <0>         0.1387
     46 H15         2.0797    0.3322    1.6433 H         1 <0>         0.0759
     47 H16         2.6632    1.9829    2.0449 H         1 <0>         0.0714
     48 H17         3.1197    1.2245    0.4819 H         1 <0>         0.0702
@<TRIPOS>BOND
     1    1    2 1
     2    1   33 1
     3    1   34 1
     4    1   35 1
     5    2    7 ar
     6    2    3 ar
     7    3    4 ar
     8    3   36 1
     9    4    5 ar
    10    4   37 1
    11    5    6 ar
    12    5   38 1
    13    6    7 ar
    14    6   39 1
    15    7    8 1
    16    8   31 1
    17    8    9 1
    18    9   16 1
    19    9   10 2
    20   10   11 1
    21   10   30 1
    22   11   12 2
    23   11   13 am
    24   13   14 1
    25   13   15 1
    26   15   16 2
    27   15   17 1
    28   17   18 1
    29   18   19 1
    30   18   40 1
    31   18   41 1
    32   19   20 2
    33   19   21 am
    34   21   22 1
    35   21   42 1
    36   22   27 ar
    37   22   23 ar
    38   23   24 ar
    39   23   43 1
    40   24   25 ar
    41   24   29 1
    42   25   26 ar
    43   25   44 1
    44   26   27 ar
    45   26   45 1
    46   27   28 1
    47   28   46 1
    48   28   47 1
    49   28   48 1
    50   30   31 1
    51   31   32 2
@<TRIPOS>MOLECULE
ZINC40811743
   56    59     0     0     0
SMALL
USER_CHARGES

@<TRIPOS>ATOM
      1 C1         -0.0184    1.5028    0.0103 C.3       1 <0>        -0.1191
      2 C2          0.0021   -0.0041    0.0020 C.ar      1 <0>        -0.0751
      3 C3          0.0057   -0.6887   -1.1989 C.ar      1 <0>        -0.1230
      4 C4          0.0245   -2.0709   -1.2065 C.ar      1 <0>        -0.0945
      5 C5          0.0400   -2.7685   -0.0132 C.ar      1 <0>        -0.1192
      6 C6          0.0373   -2.0839    1.1877 C.ar      1 <0>        -0.0944
      7 C7          0.0229   -0.7016    1.1953 C.ar      1 <0>        -0.1230
      8 C8          0.0595   -4.2753   -0.0215 C.3       1 <0>         0.1626
      9 N1          1.4468   -4.7457   -0.0317 N.am      1 <0>        -0.7182
     10 C9          1.7102   -6.0675   -0.0404 C.2       1 <0>         0.6073
     11 O1          0.7955   -6.8701   -0.0397 O.2       1 <0>        -0.5114
     12 C10         3.0998   -6.5387   -0.0506 C.2       1 <0>        -0.1017
     13 C11         3.4994   -7.8458   -0.0654 C.2       1 <0>        -0.0287
     14 C12         4.8995   -7.8271   -0.0704 C.2       1 <0>        -0.1561
     15 C13         5.2946   -6.5101   -0.0566 C.2       1 <0>         0.0633
     16 O2          4.2003   -5.7526   -0.0530 O.3       1 <0>        -0.1457
     17 C14         6.7419   -6.0879   -0.0517 C.3       1 <0>        -0.0442
     18 C15         7.6084   -7.2481    0.4455 C.3       1 <0>        -0.1095
     19 C16         7.3188   -8.5212   -0.3565 C.3       1 <0>        -0.1193
     20 C17         5.8793   -8.9358   -0.0886 C.2       1 <0>         0.1693
     21 N2          5.5361  -10.1715    0.1094 N.2       1 <0>        -0.2175
     22 N3          6.5068  -11.1813    0.0808 N.am      1 <0>        -0.5799
     23 C18         6.1503  -12.4647    0.2865 C.2       1 <0>         0.5764
     24 O3          4.9861  -12.7462    0.4967 O.2       1 <0>        -0.4900
     25 C19         7.1740  -13.5296    0.2564 C.ar      1 <0>        -0.1173
     26 C20         8.5124  -13.2090    0.0209 C.ar      1 <0>        -0.0823
     27 C21         9.4632  -14.2075   -0.0060 C.ar      1 <0>        -0.0959
     28 C22         9.0929  -15.5259    0.1995 C.ar      1 <0>        -0.0657
     29 C23         7.7670  -15.8504    0.4331 C.ar      1 <0>        -0.0946
     30 C24         6.8079  -14.8602    0.4690 C.ar      1 <0>        -0.0479
     31 Br1        10.4030  -16.8890    0.1603 Br        1 <0>        -0.0354
     32 C25         2.6110   -9.0632   -0.0738 C.3       1 <0>        -0.1005
     33 H1          1.0042    1.8801    0.0026 H         1 <0>         0.0727
     34 H2         -0.5455    1.8639   -0.8728 H         1 <0>         0.0682
     35 H3         -0.5286    1.8543    0.9071 H         1 <0>         0.0682
     36 H4         -0.0064   -0.1436   -2.1312 H         1 <0>         0.1247
     37 H5          0.0266   -2.6057   -2.1448 H         1 <0>         0.1248
     38 H6          0.0491   -2.6289    2.1200 H         1 <0>         0.1248
     39 H7          0.0245   -0.1667    2.1335 H         1 <0>         0.1247
     40 H8         -0.4447   -4.6501    0.8693 H         1 <0>         0.0809
     41 H9         -0.4546   -4.6404   -0.9106 H         1 <0>         0.0809
     42 H10         2.1759   -4.1059   -0.0323 H         1 <0>         0.4061
     43 H11         7.0446   -5.8154   -1.0628 H         1 <0>         0.1027
     44 H12         6.8683   -5.2305    0.6093 H         1 <0>         0.0999
     45 H13         8.6602   -6.9845    0.3336 H         1 <0>         0.0939
     46 H14         7.3946   -7.4305    1.4986 H         1 <0>         0.0769
     47 H15         7.4528   -8.3241   -1.4201 H         1 <0>         0.1001
     48 H16         7.9949   -9.3160   -0.0413 H         1 <0>         0.0782
     49 H17         7.4354  -10.9568   -0.0869 H         1 <0>         0.3845
     50 H18         8.8024  -12.1812   -0.1402 H         1 <0>         0.1324
     51 H19        10.4988  -13.9608   -0.1881 H         1 <0>         0.1428
     52 H20         7.4843  -16.8805    0.5923 H         1 <0>         0.1450
     53 H21         5.7749  -15.1139    0.6565 H         1 <0>         0.1502
     54 H22         2.3929   -9.3466   -1.1035 H         1 <0>         0.0759
     55 H23         3.1178   -9.8862    0.4300 H         1 <0>         0.0859
     56 H24         1.6800   -8.8371    0.4459 H         1 <0>         0.0868
@<TRIPOS>BOND
     1    1    2 1
     2    1   33 1
     3    1   34 1
     4    1   35 1
     5    2    7 ar
     6    2    3 ar
     7    3    4 ar
     8    3   36 1
     9    4    5 ar
    10    4   37 1
    11    5    6 ar
    12    5    8 1
    13    6    7 ar
    14    6   38 1
    15    7   39 1
    16    8    9 1
    17    8   40 1
    18    8   41 1
    19    9   10 am
    20    9   42 1
    21   10   11 2
    22   10   12 1
    23   12   16 1
    24   12   13 2
    25   13   14 1
    26   13   32 1
    27   14   20 1
    28   14   15 2
    29   15   16 1
    30   15   17 1
    31   17   18 1
    32   17   43 1
    33   17   44 1
    34   18   19 1
    35   18   45 1
    36   18   46 1
    37   19   20 1
    38   19   47 1
    39   19   48 1
    40   20   21 2
    41   21   22 1
    42   22   23 am
    43   22   49 1
    44   23   24 2
    45   23   25 1
    46   25   30 ar
    47   25   26 ar
    48   26   27 ar
    49   26   50 1
    50   27   28 ar
    51   27   51 1
    52   28   29 ar
    53   28   31 1
    54   29   30 ar
    55   29   52 1
    56   30   53 1
    57   32   54 1
    58   32   55 1
    59   32   56 1
@<TRIPOS>MOLECULE
ZINC67238387
   48    50     0     0     0
SMALL
USER_CHARGES

@<TRIPOS>ATOM
      1 C1         -0.0073    1.4859    0.0310 C.3       1 <0>        -0.1525
      2 C2          0.0166   -0.0438    0.0111 C.3       1 <0>        -0.1196
      3 C3         -1.4176   -0.5765    0.0226 C.3       1 <0>        -0.1357
      4 C4         -1.3936   -2.1062    0.0027 C.3       1 <0>         0.0915
      5 N1         -2.7669   -2.6163    0.0137 N.am      1 <0>        -0.5086
      6 C5         -3.3831   -2.8598    1.1911 C.2       1 <0>         0.5686
      7 O1         -2.8088   -2.6597    2.2485 O.2       1 <0>        -0.5338
      8 C6         -4.7024   -3.3489    1.1704 C.2       1 <0>        -0.1029
      9 C7         -5.3215   -3.5629   -0.0669 C.2       1 <0>         0.1238
     10 C8         -6.6187   -4.0476    0.2097 C.2       1 <0>        -0.1864
     11 C9         -6.7589   -4.1165    1.5489 C.2       1 <0>         0.0985
     12 N2         -5.6103   -3.6980    2.1480 N.pl3     1 <0>        -0.5195
     13 H1         -5.4560   -3.6529    3.1046 H         1 <0>         0.4249
     14 C10        -7.9960   -4.5845    2.2710 C.3       1 <0>        -0.0959
     15 N3         -4.6465   -3.2985   -1.2026 N.2       1 <0>        -0.5012
     16 C11        -3.4180   -2.8373   -1.1659 C.2       1 <0>         0.3313
     17 S1         -2.5836   -2.5009   -2.6809 S.3       1 <0>         0.0771
     18 C12        -3.7999   -2.9300   -3.9564 C.3       1 <0>        -0.1500
     19 C13        -3.2058   -2.6855   -5.3196 C.2       1 <0>         0.5398
     20 O2         -2.0733   -2.2632   -5.4207 O.2       1 <0>        -0.4983
     21 N4         -3.9329   -2.9360   -6.4264 N.am      1 <0>        -0.6634
     22 C14        -3.4163   -2.6215   -7.6899 C.ar      1 <0>         0.1293
     23 C15        -2.0561   -2.7475   -7.9361 C.ar      1 <0>        -0.0882
     24 C16        -1.5489   -2.4367   -9.1828 C.ar      1 <0>        -0.0783
     25 C17        -2.3947   -1.9999  -10.1869 C.ar      1 <0>        -0.0789
     26 C18        -3.7511   -1.8728   -9.9461 C.ar      1 <0>        -0.1068
     27 C19        -4.2658   -2.1879   -8.7017 C.ar      1 <0>         0.0833
     28 F1         -5.5912   -2.0696   -8.4680 F         1 <0>        -0.1282
     29 Br1        -1.6952   -1.5752  -11.8916 Br        1 <0>        -0.0304
     30 H2          1.0145    1.8654    0.0228 H         1 <0>         0.0578
     31 H3         -0.5381    1.8524   -0.8476 H         1 <0>         0.0560
     32 H4         -0.5153    1.8296    0.9321 H         1 <0>         0.0537
     33 H5          0.5247   -0.3875   -0.8899 H         1 <0>         0.0688
     34 H6          0.5474   -0.4104    0.8897 H         1 <0>         0.0661
     35 H7         -1.9256   -0.2328    0.9236 H         1 <0>         0.0708
     36 H8         -1.9484   -0.2100   -0.8560 H         1 <0>         0.0745
     37 H9         -0.8856   -2.4499   -0.8984 H         1 <0>         0.1001
     38 H10        -0.8628   -2.4728    0.8813 H         1 <0>         0.1065
     39 H11        -7.3664   -4.3157   -0.5221 H         1 <0>         0.1555
     40 H12        -7.9367   -5.6607    2.4333 H         1 <0>         0.0844
     41 H13        -8.0701   -4.0757    3.2321 H         1 <0>         0.0733
     42 H14        -8.8760   -4.3557    1.6700 H         1 <0>         0.0922
     43 H15        -4.0705   -3.9816   -3.8613 H         1 <0>         0.1354
     44 H16        -4.6899   -2.3132   -3.8320 H         1 <0>         0.1354
     45 H17        -4.8140   -3.3341   -6.3481 H         1 <0>         0.4208
     46 H18        -1.3946   -3.0880   -7.1532 H         1 <0>         0.1608
     47 H19        -0.4905   -2.5346   -9.3740 H         1 <0>         0.1466
     48 H20        -4.4091   -1.5316  -10.7317 H         1 <0>         0.1519
@<TRIPOS>BOND
     1    1    2 1
     2    1   30 1
     3    1   31 1
     4    1   32 1
     5    2    3 1
     6    2   33 1
     7    2   34 1
     8    3    4 1
     9    3   35 1
    10    3   36 1
    11    4    5 1
    12    4   37 1
    13    4   38 1
    14    5   16 1
    15    5    6 am
    16    6    7 2
    17    6    8 1
    18    8   12 1
    19    8    9 2
    20    9   10 1
    21    9   15 1
    22   10   11 2
    23   10   39 1
    24   11   12 1
    25   11   14 1
    26   12   13 1
    27   14   40 1
    28   14   41 1
    29   14   42 1
    30   15   16 2
    31   16   17 1
    32   17   18 1
    33   18   19 1
    34   18   43 1
    35   18   44 1
    36   19   20 2
    37   19   21 am
    38   21   22 1
    39   21   45 1
    40   22   27 ar
    41   22   23 ar
    42   23   24 ar
    43   23   46 1
    44   24   25 ar
    45   24   47 1
    46   25   26 ar
    47   25   29 1
    48   26   27 ar
    49   26   48 1
    50   27   28 1
@<TRIPOS>MOLECULE
ZINC38581793
   61    66     0     0     0
SMALL
USER_CHARGES

@<TRIPOS>ATOM
      1 C1          0.6262    0.6702   -0.6374 C.3       1 <0>        -0.1190
      2 C2          0.6413   -0.8143   -0.3786 C.ar      1 <0>        -0.1041
      3 C3          0.8761   -1.6949   -1.4183 C.ar      1 <0>        -0.0504
      4 C4          0.8900   -3.0564   -1.1810 C.ar      1 <0>        -0.1324
      5 C5          0.6694   -3.5378    0.0962 C.ar      1 <0>         0.0098
      6 C6          0.4355   -2.6574    1.1357 C.ar      1 <0>        -0.6444
      7 C7          0.4259   -1.2953    0.8991 C.ar      1 <0>        -0.0048
      8 S1          0.1539   -3.2709    2.7633 S.o2      1 <0>         2.5073
      9 O1          1.1709   -4.2425    2.9656 O.2       1 <0>        -0.8987
     10 O2          0.0871   -2.1110    3.5815 O.2       1 <0>        -0.9165
     11 C8         -1.4706   -4.0741    2.6841 C.3       1 <0>        -0.5505
     12 H1         -1.4975   -4.7970    1.8687 H         1 <0>         0.1966
     13 C9         -2.5627   -3.0413    2.5105 C.ar      1 <0>         0.1054
     14 C10        -3.4205   -3.1191    3.6193 C.ar      1 <0>         0.3201
     15 N1         -4.4661   -2.3043    3.6978 N.ar      1 <0>        -0.4152
     16 C11        -4.6992   -1.4167    2.7276 C.ar      1 <0>         0.1226
     17 C12        -5.8000   -0.5440    2.7919 C.ar      1 <0>        -0.0886
     18 C13        -6.0119    0.3507    1.7886 C.ar      1 <0>        -0.0725
     19 C14        -5.1527    0.4169    0.6934 C.ar      1 <0>        -0.0861
     20 C15        -4.0768   -0.4116    0.5972 C.ar      1 <0>        -0.0715
     21 C16        -3.8257   -1.3482    1.6135 C.ar      1 <0>         0.0842
     22 N2         -2.7766   -2.1762    1.5476 N.ar      1 <0>        -0.3633
     23 N3         -3.0096   -4.0982    4.5115 N.pl3     1 <0>        -0.3529
     24 C17        -1.7957   -4.7604    4.0206 C.3       1 <0>         0.2911
     25 H2         -0.9768   -4.6194    4.7260 H         1 <0>         0.1368
     26 N4         -2.0451   -6.1926    3.8093 N.3       1 <0>        -0.8031
     27 N5         -3.6102   -4.3871    5.6160 N.2       1 <0>        -0.0889
     28 C18        -3.0778   -5.2535    6.4450 C.2       1 <0>        -0.0658
     29 C19        -3.7598   -5.6160    7.6103 C.2       1 <0>         0.1589
     30 C20        -3.3350   -6.5120    8.5929 C.ar      1 <0>        -0.1765
     31 C21        -2.1674   -7.2922    8.7310 C.ar      1 <0>        -0.0139
     32 C22        -2.0175   -8.0937    9.8167 C.ar      1 <0>        -0.1529
     33 C23        -2.9956   -8.1690   10.8110 C.ar      1 <0>         0.0378
     34 C24        -4.1415   -7.4483   10.7430 C.ar      1 <0>        -0.2020
     35 C25        -4.3691   -6.5875    9.6378 C.ar      1 <0>         0.3096
     36 N6         -5.3813   -5.7962    9.3430 N.pl3     1 <0>        -0.6075
     37 C26        -5.1096   -5.1144    8.0739 C.3       1 <0>         0.0750
     38 C27         0.6836   -5.0223    0.3548 C.3       1 <0>        -0.1423
     39 H3          1.6323    1.0709   -0.5136 H         1 <0>         0.0767
     40 H4          0.2829    0.8582   -1.6547 H         1 <0>         0.0729
     41 H5         -0.0476    1.1553    0.0688 H         1 <0>         0.0699
     42 H6          1.0484   -1.3189   -2.4160 H         1 <0>         0.1352
     43 H7          1.0728   -3.7443   -1.9932 H         1 <0>         0.1370
     44 H8          0.2469   -0.6072    1.7121 H         1 <0>         0.1394
     45 H9         -6.4749   -0.5840    3.6340 H         1 <0>         0.1484
     46 H10        -6.8585    1.0192    1.8419 H         1 <0>         0.1484
     47 H11        -5.3430    1.1357   -0.0899 H         1 <0>         0.1489
     48 H12        -3.4192   -0.3494   -0.2573 H         1 <0>         0.1509
     49 H13        -2.3364   -6.6391    4.6659 H         1 <0>         0.3611
     50 H14        -2.7241   -6.3372    3.0771 H         1 <0>         0.3694
     51 H15        -2.1128   -5.6867    6.2272 H         1 <0>         0.1541
     52 H16        -1.3963   -7.2523    7.9760 H         1 <0>         0.1527
     53 H17        -1.1206   -8.6875    9.9136 H         1 <0>         0.1531
     54 H18        -2.8344   -8.8201   11.6575 H         1 <0>         0.1570
     55 H19        -4.8793   -7.5288   11.5277 H         1 <0>         0.1565
     56 H20        -5.0775   -4.0353    8.2243 H         1 <0>         0.1708
     57 H21        -5.8762   -5.3691    7.3420 H         1 <0>         0.1678
     58 H22         1.7095   -5.3534    0.5159 H         1 <0>         0.1037
     59 H23         0.0875   -5.2426    1.2404 H         1 <0>         0.0546
     60 H24         0.2639   -5.5449   -0.5048 H         1 <0>         0.0887
     61 H25        -6.1786   -5.6799    9.8831 H         1 <0>         0.4513
@<TRIPOS>BOND
     1    1    2 1
     2    1   39 1
     3    1   40 1
     4    1   41 1
     5    2    7 ar
     6    2    3 ar
     7    3    4 ar
     8    3   42 1
     9    4    5 ar
    10    4   43 1
    11    5    6 ar
    12    5   38 1
    13    6    7 ar
    14    6    8 1
    15    7   44 1
    16    8    9 2
    17    8   10 2
    18    8   11 1
    19   11   12 1
    20   11   24 1
    21   11   13 1
    22   13   22 ar
    23   13   14 ar
    24   14   15 ar
    25   14   23 1
    26   15   16 ar
    27   16   21 ar
    28   16   17 ar
    29   17   18 ar
    30   17   45 1
    31   18   19 ar
    32   18   46 1
    33   19   20 ar
    34   19   47 1
    35   20   21 ar
    36   20   48 1
    37   21   22 ar
    38   23   24 1
    39   23   27 1
    40   24   25 1
    41   24   26 1
    42   26   49 1
    43   26   50 1
    44   27   28 2
    45   28   29 1
    46   28   51 1
    47   29   37 1
    48   29   30 2
    49   30   35 ar
    50   30   31 ar
    51   31   32 ar
    52   31   52 1
    53   32   33 ar
    54   32   53 1
    55   33   34 ar
    56   33   54 1
    57   34   35 ar
    58   34   55 1
    59   35   36 2
    60   36   37 1
    61   36   61 1
    62   37   56 1
    63   37   57 1
    64   38   58 1
    65   38   59 1
    66   38   60 1
@<TRIPOS>MOLECULE
ZINC39637289
   74    78     0     0     0
SMALL
USER_CHARGES

@<TRIPOS>ATOM
      1 C1          0.0512    1.7052    0.4180 C.3       1 <0>        -0.0957
      2 C2          0.2053    0.2150    0.2541 C.2       1 <0>         0.1245
      3 C3         -0.8027   -0.7025    0.3025 C.2       1 <0>        -0.2904
      4 C4         -0.1864   -2.0214    0.0925 C.2       1 <0>         0.1773
      5 N1          1.0981   -1.8206   -0.0622 N.2       1 <0>        -0.2661
      6 O1          1.3514   -0.4330    0.0307 O.3       1 <0>        -0.0593
      7 C5         -0.8858   -3.3281    0.0622 C.ar      1 <0>        -0.0823
      8 C6         -1.9983   -3.5090   -0.7617 C.ar      1 <0>         0.1458
      9 C7         -2.6456   -4.7304   -0.7848 C.ar      1 <0>        -0.1515
     10 C8         -2.1930   -5.7709    0.0059 C.ar      1 <0>        -0.0524
     11 C9         -1.0916   -5.5975    0.8240 C.ar      1 <0>        -0.1210
     12 C10        -0.4319   -4.3839    0.8523 C.ar      1 <0>         0.0198
     13 Cl1         0.9548   -4.1714    1.8749 Cl        1 <0>        -0.0312
     14 F1         -2.4414   -2.4930   -1.5342 F         1 <0>        -0.1091
     15 C11        -2.2323   -0.4260    0.5234 C.2       1 <0>         0.6232
     16 O2         -2.9638   -0.2121   -0.4244 O.2       1 <0>        -0.5002
     17 N2         -2.7299   -0.4101    1.7758 N.am      1 <0>        -0.6151
     18 C12        -2.0011   -0.6387    3.0457 C.3       1 <0>         0.1126
     19 C13        -2.6066    0.3841    4.0329 C.3       1 <0>        -0.1139
     20 H1         -2.0001    1.2893    4.0610 H         1 <0>         0.1104
     21 C14        -4.0040    0.6929    3.4699 C.3       1 <0>        -0.0712
     22 C15        -4.1288   -0.1534    2.1946 C.3       1 <0>         0.1095
     23 C16        -5.0791    0.2952    4.4766 C.3       1 <0>        -0.1475
     24 C17        -6.4563    0.6653    3.9186 C.3       1 <0>        -0.0083
     25 N3         -6.5099    2.1093    3.6604 N.4       1 <0>        -0.5045
     26 C18        -5.5354    2.4688    2.6231 C.3       1 <0>        -0.0115
     27 C19        -4.1193    2.1750    3.1264 C.3       1 <0>        -0.1344
     28 C20        -2.7145   -0.2170    5.4107 C.2       1 <0>         0.5196
     29 O3         -2.9010   -1.4084    5.5396 O.2       1 <0>        -0.5185
     30 N4         -2.6037    0.5695    6.4996 N.am      1 <0>        -0.7221
     31 C21        -2.7085   -0.0148    7.8389 C.3       1 <0>         0.1477
     32 H2         -2.2668   -1.0113    7.8362 H         1 <0>         0.0924
     33 C22        -4.1821   -0.1112    8.2393 C.3       1 <0>        -0.1247
     34 C23        -4.2916   -0.7214    9.6381 C.3       1 <0>        -0.1196
     35 C24        -3.5476    0.1635   10.6402 C.3       1 <0>        -0.1201
     36 C25        -2.0741    0.2599   10.2398 C.3       1 <0>        -0.0845
     37 H3         -1.6324   -0.7366   10.2371 H         1 <0>         0.0742
     38 C26        -1.9646    0.8701    8.8411 C.3       1 <0>        -0.0939
     39 H4         -0.9148    0.9388    8.5558 H         1 <0>         0.0777
     40 C27        -2.5846    2.2688    8.8449 C.3       1 <0>        -0.1544
     41 C28        -1.3301    1.1448   11.2420 C.3       1 <0>        -0.1520
     42 H5          1.0264    2.1835    0.3267 H         1 <0>         0.0994
     43 H6         -0.6153    2.0887   -0.3545 H         1 <0>         0.1039
     44 H7         -0.3688    1.9211    1.4003 H         1 <0>         0.0952
     45 H8         -3.5066   -4.8721   -1.4212 H         1 <0>         0.1526
     46 H9         -2.7023   -6.7230   -0.0154 H         1 <0>         0.1535
     47 H10        -0.7437   -6.4141    1.4392 H         1 <0>         0.1523
     48 H11        -2.1679   -1.6553    3.4018 H         1 <0>         0.1008
     49 H12        -0.9356   -0.4523    2.9112 H         1 <0>         0.0890
     50 H13        -4.6617    0.4007    1.4219 H         1 <0>         0.0916
     51 H14        -4.6392   -1.0917    2.4117 H         1 <0>         0.0859
     52 H15        -5.0342   -0.7798    4.6513 H         1 <0>         0.1276
     53 H16        -4.9126    0.8241    5.4150 H         1 <0>         0.0980
     54 H17        -6.6288    0.1235    2.9886 H         1 <0>         0.1337
     55 H18        -7.2255    0.3972    4.6428 H         1 <0>         0.1394
     56 H19        -7.4368    2.3600    3.3506 H         1 <0>         0.4345
     57 H20        -5.7298    1.8840    1.7239 H         1 <0>         0.1347
     58 H21        -5.6258    3.5302    2.3922 H         1 <0>         0.1403
     59 H22        -3.9184    2.7716    4.0162 H         1 <0>         0.0968
     60 H23        -3.3976    2.4256    2.3490 H         1 <0>         0.1179
     61 H24        -2.4545    1.5224    6.3964 H         1 <0>         0.3986
     62 H25        -4.6238    0.8853    8.2420 H         1 <0>         0.0639
     63 H26        -4.7121   -0.7416    7.5254 H         1 <0>         0.0629
     64 H27        -5.3414   -0.7901    9.9234 H         1 <0>         0.0670
     65 H28        -3.8499   -1.7179    9.6354 H         1 <0>         0.0668
     66 H29        -3.9893    1.1600   10.6430 H         1 <0>         0.0663
     67 H30        -3.6256   -0.2712   11.6367 H         1 <0>         0.0678
     68 H31        -3.6343    2.2002    9.1301 H         1 <0>         0.0648
     69 H32        -2.0545    2.8993    9.5588 H         1 <0>         0.0671
     70 H33        -2.5065    2.7036    7.8484 H         1 <0>         0.0456
     71 H34        -1.4081    0.7101   12.2385 H         1 <0>         0.0595
     72 H35        -0.2803    1.2135   10.9567 H         1 <0>         0.0565
     73 H36        -1.7718    2.1413   11.2447 H         1 <0>         0.0588
     74 H37        -6.2950    2.6097    4.5098 H         1 <0>         0.4275
@<TRIPOS>BOND
     1    1    2 1
     2    1   42 1
     3    1   43 1
     4    1   44 1
     5    2    6 1
     6    2    3 2
     7    3    4 1
     8    3   15 1
     9    4    5 2
    10    4    7 1
    11    5    6 1
    12    7   12 ar
    13    7    8 ar
    14    8    9 ar
    15    8   14 1
    16    9   10 ar
    17    9   45 1
    18   10   11 ar
    19   10   46 1
    20   11   12 ar
    21   11   47 1
    22   12   13 1
    23   15   16 2
    24   15   17 am
    25   17   22 1
    26   17   18 1
    27   18   19 1
    28   18   48 1
    29   18   49 1
    30   19   20 1
    31   19   21 1
    32   19   28 1
    33   21   27 1
    34   21   22 1
    35   21   23 1
    36   22   50 1
    37   22   51 1
    38   23   24 1
    39   23   52 1
    40   23   53 1
    41   24   25 1
    42   24   54 1
    43   24   55 1
    44   25   26 1
    45   25   56 1
    46   25   74 1
    47   26   27 1
    48   26   57 1
    49   26   58 1
    50   27   59 1
    51   27   60 1
    52   28   29 2
    53   28   30 am
    54   30   31 1
    55   30   61 1
    56   31   32 1
    57   31   38 1
    58   31   33 1
    59   33   34 1
    60   33   62 1
    61   33   63 1
    62   34   35 1
    63   34   64 1
    64   34   65 1
    65   35   36 1
    66   35   66 1
    67   35   67 1
    68   36   37 1
    69   36   38 1
    70   36   41 1
    71   38   39 1
    72   38   40 1
    73   40   68 1
    74   40   69 1
    75   40   70 1
    76   41   71 1
    77   41   72 1
    78   41   73 1
@<TRIPOS>MOLECULE
ZINC39677728
   69    74     0     0     0
SMALL
USER_CHARGES

@<TRIPOS>ATOM
      1 C1          0.1028    1.1806   -0.5557 C.ar      1 <0>        -0.1005
      2 C2          1.2665    1.9251   -0.4775 C.ar      1 <0>        -0.1178
      3 C3          2.4903    1.2925   -0.4058 C.ar      1 <0>        -0.0963
      4 C4          2.5529   -0.1025   -0.4117 C.ar      1 <0>        -0.0379
      5 C5          1.3745   -0.8476   -0.4903 C.ar      1 <0>        -0.0873
      6 C6          0.1576   -0.2020   -0.5620 C.ar      1 <0>        -0.1142
      7 C7          3.8596   -0.7867   -0.3355 C.2       1 <0>         0.0793
      8 C8          4.0516   -2.1385   -0.3386 C.2       1 <0>        -0.2043
      9 C9          5.4302   -2.3582   -0.2526 C.2       1 <0>        -0.0931
     10 C10         6.0278   -1.1181   -0.2001 C.2       1 <0>        -0.0978
     11 O1          5.0569   -0.1822   -0.2576 O.3       1 <0>        -0.1575
     12 C11         7.4669   -0.8599   -0.1040 C.2       1 <0>         0.6353
     13 O2          8.2507   -1.7903   -0.0635 O.2       1 <0>        -0.5113
     14 N1          7.9228    0.4077   -0.0604 N.am      1 <0>        -0.6182
     15 C12         7.1303    1.6594   -0.0913 C.3       1 <0>         0.1085
     16 C13         7.8399    2.5957    0.9123 C.3       1 <0>        -0.1131
     17 H1          7.3635    2.5344    1.8907 H         1 <0>         0.1126
     18 C14         9.2834    2.0703    0.9857 C.3       1 <0>        -0.0721
     19 C15         9.3300    0.8645    0.0359 C.3       1 <0>         0.1104
     20 C16        10.2616    3.1461    0.5239 C.3       1 <0>        -0.1474
     21 C17        11.6933    2.6204    0.6610 C.3       1 <0>        -0.0078
     22 N2         11.9535    2.2628    2.0606 N.4       1 <0>        -0.5046
     23 C18        11.0707    1.1633    2.4688 C.3       1 <0>        -0.0111
     24 C19         9.6126    1.6274    2.4082 C.3       1 <0>        -0.1353
     25 C20         7.8210    4.0159    0.4086 C.2       1 <0>         0.5218
     26 O3          7.8309    4.2365   -0.7840 O.2       1 <0>        -0.5173
     27 N3          7.7931    5.0408    1.2833 N.am      1 <0>        -0.7245
     28 C21         7.7746    6.4214    0.7937 C.3       1 <0>         0.2076
     29 C22         7.7446    7.3694    1.9647 C.2       1 <0>        -0.1898
     30 C23         8.7839    7.9294    2.6371 C.2       1 <0>        -0.1233
     31 C24         8.5229    8.7777    3.6894 C.2       1 <0>        -0.1298
     32 C25         7.2185    9.0297    4.0245 C.2       1 <0>        -0.0938
     33 S1          6.3343    8.0517    2.8206 S.3       1 <0>         0.1023
     34 C26         6.6833    9.8907    5.0982 C.ar      1 <0>         0.1931
     35 C27         5.3024   10.0039    5.2722 C.ar      1 <0>        -0.1556
     36 C28         4.8172   10.8141    6.2821 C.ar      1 <0>        -0.0670
     37 C29         5.7266   11.4870    7.0878 C.ar      1 <0>        -0.1625
     38 C30         7.0808   11.3302    6.8606 C.ar      1 <0>         0.1098
     39 N4          7.5192   10.5479    5.8950 N.ar      1 <0>        -0.4707
     40 H2         -0.8529    1.6809   -0.6076 H         1 <0>         0.1306
     41 H3          1.2166    3.0039   -0.4731 H         1 <0>         0.1301
     42 H4          3.3978    1.8748   -0.3455 H         1 <0>         0.1250
     43 H5          1.4159   -1.9268   -0.4957 H         1 <0>         0.1322
     44 H6         -0.7546   -0.7771   -0.6229 H         1 <0>         0.1344
     45 H7          3.2835   -2.8955   -0.3960 H         1 <0>         0.1639
     46 H8          5.9298   -3.3155   -0.2311 H         1 <0>         0.1666
     47 H9          7.1441    2.0934   -1.0911 H         1 <0>         0.1023
     48 H10         6.1054    1.4682    0.2268 H         1 <0>         0.1028
     49 H11         9.9580    0.0770    0.4526 H         1 <0>         0.0924
     50 H12         9.6992    1.1685   -0.9436 H         1 <0>         0.0886
     51 H13        10.0635    3.3946   -0.5187 H         1 <0>         0.1282
     52 H14        10.1404    4.0369    1.1403 H         1 <0>         0.0975
     53 H15        11.8184    1.7392    0.0318 H         1 <0>         0.1340
     54 H16        12.3953    3.3929    0.3471 H         1 <0>         0.1399
     55 H17        12.9153    1.9745    2.1595 H         1 <0>         0.4345
     56 H18        11.2105    0.3167    1.7965 H         1 <0>         0.1348
     57 H19        11.3137    0.8616    3.4876 H         1 <0>         0.1403
     58 H20         9.4682    2.4636    3.0923 H         1 <0>         0.0972
     59 H21         8.9568    0.8051    2.6943 H         1 <0>         0.1185
     60 H22         7.7851    4.8644    2.2371 H         1 <0>         0.4039
     61 H23         8.6684    6.6077    0.1982 H         1 <0>         0.0959
     62 H24         6.8888    6.5767    0.1777 H         1 <0>         0.0899
     63 H25         9.8019    7.7115    2.3500 H         1 <0>         0.1362
     64 H26         9.3309    9.2356    4.2405 H         1 <0>         0.1462
     65 H27         4.6231    9.4665    4.6271 H         1 <0>         0.1353
     66 H28         3.7543   10.9217    6.4407 H         1 <0>         0.1435
     67 H29         5.3786   12.1275    7.8847 H         1 <0>         0.1435
     68 H30         7.7896   11.8528    7.4857 H         1 <0>         0.1653
     69 H31        11.7833    3.0649    2.6486 H         1 <0>         0.4278
@<TRIPOS>BOND
     1    1    6 ar
     2    1    2 ar
     3    1   40 1
     4    2    3 ar
     5    2   41 1
     6    3    4 ar
     7    3   42 1
     8    4    5 ar
     9    4    7 1
    10    5    6 ar
    11    5   43 1
    12    6   44 1
    13    7   11 1
    14    7    8 2
    15    8    9 1
    16    8   45 1
    17    9   10 2
    18    9   46 1
    19   10   11 1
    20   10   12 1
    21   12   13 2
    22   12   14 am
    23   14   19 1
    24   14   15 1
    25   15   16 1
    26   15   47 1
    27   15   48 1
    28   16   17 1
    29   16   18 1
    30   16   25 1
    31   18   24 1
    32   18   19 1
    33   18   20 1
    34   19   49 1
    35   19   50 1
    36   20   21 1
    37   20   51 1
    38   20   52 1
    39   21   22 1
    40   21   53 1
    41   21   54 1
    42   22   23 1
    43   22   55 1
    44   22   69 1
    45   23   24 1
    46   23   56 1
    47   23   57 1
    48   24   58 1
    49   24   59 1
    50   25   26 2
    51   25   27 am
    52   27   28 1
    53   27   60 1
    54   28   29 1
    55   28   61 1
    56   28   62 1
    57   29   33 1
    58   29   30 2
    59   30   31 1
    60   30   63 1
    61   31   32 2
    62   31   64 1
    63   32   33 1
    64   32   34 1
    65   34   39 ar
    66   34   35 ar
    67   35   36 ar
    68   35   65 1
    69   36   37 ar
    70   36   66 1
    71   37   38 ar
    72   37   67 1
    73   38   39 ar
    74   38   68 1
@<TRIPOS>MOLECULE
ZINC63375964
   65    71     0     0     0
SMALL
USER_CHARGES

@<TRIPOS>ATOM
      1 C1         -0.6982    0.9785   -0.3302 C.3       1 <0>        -0.1158
      2 C2         -0.6651   -0.5171   -0.1482 C.ar      1 <0>        -0.0980
      3 C3         -0.8558   -1.3518   -1.2343 C.ar      1 <0>        -0.0679
      4 C4         -0.8254   -2.7213   -1.0735 C.ar      1 <0>        -0.1276
      5 C5         -0.6026   -3.2746    0.1851 C.ar      1 <0>         0.1568
      6 C6         -0.4143   -2.4249    1.2713 C.ar      1 <0>        -0.1498
      7 C7         -0.4382   -1.0582    1.1047 C.ar      1 <0>        -0.0568
      8 C8         -0.2098   -3.3188    2.4610 C.3       1 <0>         0.1345
      9 C9          1.1429   -3.0633    3.1352 C.3       1 <0>        -0.1339
     10 H1          1.5454   -2.0770    2.9044 H         1 <0>         0.1554
     11 C10         0.8684   -3.2613    4.6523 C.3       1 <0>        -0.1499
     12 H2          1.1263   -2.3855    5.2477 H         1 <0>         0.1532
     13 C11        -0.6306   -3.6201    4.7393 C.3       1 <0>         0.0837
     14 H3         -0.7608   -4.7020    4.7637 H         1 <0>         0.1208
     15 N1         -1.2307   -3.0798    3.4983 N.3       1 <0>        -0.6247
     16 C12        -1.2599   -2.9810    5.9789 C.3       1 <0>        -0.0897
     17 C13        -2.6884   -3.4424    6.1115 C.2       1 <0>         0.0769
     18 C14        -3.1442   -4.4717    6.8613 C.ar      1 <0>        -0.1689
     19 C15        -2.4721   -5.4336    7.7430 C.ar      1 <0>        -0.0087
     20 C16        -3.2122   -6.3738    8.3734 C.ar      1 <0>        -0.1538
     21 C17        -4.6016   -6.4527    8.2058 C.ar      1 <0>         0.0556
     22 C18        -5.2898   -5.6045    7.4126 C.ar      1 <0>        -0.2122
     23 C19        -4.6122   -4.5759    6.7016 C.ar      1 <0>         0.3281
     24 N2         -5.0471   -3.6472    5.8849 N.pl3     1 <0>        -0.5857
     25 C20        -3.9033   -2.8440    5.4383 C.3       1 <0>         0.0606
     26 C21         1.7038   -4.4723    5.0020 C.2       1 <0>         0.5408
     27 O1          1.7825   -4.9749    6.1024 O.2       1 <0>        -0.4588
     28 N3          2.3420   -4.9033    3.9078 N.am      1 <0>        -0.5110
     29 C22         2.1047   -4.1780    2.7914 C.2       1 <0>         0.5320
     30 O2          2.5775   -4.3814    1.6938 O.2       1 <0>        -0.4398
     31 C23         3.1962   -6.0167    3.9168 C.ar      1 <0>         0.0586
     32 C24         2.6789   -7.2870    4.1305 C.ar      1 <0>        -0.0489
     33 C25         3.5196   -8.3823    4.1387 C.ar      1 <0>        -0.1427
     34 C26         4.8812   -8.2134    3.9334 C.ar      1 <0>         0.1488
     35 C27         5.3988   -6.9441    3.7202 C.ar      1 <0>        -0.1983
     36 C28         4.5580   -5.8488    3.7061 C.ar      1 <0>        -0.0560
     37 O3          5.7086   -9.2921    3.9416 O.3       1 <0>        -0.3110
     38 C29         7.0991   -9.0449    3.7235 C.3       1 <0>         0.0230
     39 C30        -0.2984   -4.7192    1.9183 C.2       1 <0>         0.5478
     40 O4         -0.1864   -5.7489    2.5493 O.2       1 <0>        -0.4812
     41 N4         -0.5270   -4.6072    0.5957 N.am      1 <0>        -0.6493
     42 H4          0.3051    1.3392   -0.5572 H         1 <0>         0.0758
     43 H5         -1.3691    1.2298   -1.1517 H         1 <0>         0.0720
     44 H6         -1.0544    1.4483    0.5866 H         1 <0>         0.0686
     45 H7         -1.0298   -0.9293   -2.2128 H         1 <0>         0.1385
     46 H8         -0.9752   -3.3667   -1.9264 H         1 <0>         0.1337
     47 H9         -0.2845   -0.4083    1.9534 H         1 <0>         0.1300
     48 H10        -1.4196   -2.0938    3.5993 H         1 <0>         0.3568
     49 H11        -0.6986   -3.2773    6.8650 H         1 <0>         0.1297
     50 H12        -1.2363   -1.8958    5.8798 H         1 <0>         0.1210
     51 H13        -1.4025   -5.3915    7.8860 H         1 <0>         0.1623
     52 H14        -2.7198   -7.0826    9.0226 H         1 <0>         0.1575
     53 H15        -5.1438   -7.2239    8.7327 H         1 <0>         0.1600
     54 H16        -6.3605   -5.7079    7.3170 H         1 <0>         0.1595
     55 H17        -4.0288   -1.8053    5.7439 H         1 <0>         0.1726
     56 H18        -3.8022   -2.9080    4.3549 H         1 <0>         0.1782
     57 H19         1.6189   -7.4185    4.2907 H         1 <0>         0.1340
     58 H20         3.1172   -9.3706    4.3054 H         1 <0>         0.1422
     59 H21         6.4589   -6.8130    3.5611 H         1 <0>         0.1402
     60 H22         4.9604   -4.8612    3.5357 H         1 <0>         0.1286
     61 H23         7.6451   -9.9877    3.7549 H         1 <0>         0.1066
     62 H24         7.2365   -8.5778    2.7483 H         1 <0>         0.0595
     63 H25         7.4763   -8.3805    4.5010 H         1 <0>         0.0596
     64 H26        -0.6275   -5.3644   -0.0022 H         1 <0>         0.4220
     65 H27        -5.9711   -3.5112    5.6228 H         1 <0>         0.4548
@<TRIPOS>BOND
     1    1    2 1
     2    1   42 1
     3    1   43 1
     4    1   44 1
     5    2    7 ar
     6    2    3 ar
     7    3    4 ar
     8    3   45 1
     9    4    5 ar
    10    4   46 1
    11    5   41 1
    12    5    6 ar
    13    6    7 ar
    14    6    8 1
    15    7   47 1
    16    8   15 1
    17    8    9 1
    18    8   39 1
    19    9   10 1
    20    9   29 1
    21    9   11 1
    22   11   12 1
    23   11   13 1
    24   11   26 1
    25   13   14 1
    26   13   15 1
    27   13   16 1
    28   15   48 1
    29   16   17 1
    30   16   49 1
    31   16   50 1
    32   17   25 1
    33   17   18 2
    34   18   23 ar
    35   18   19 ar
    36   19   20 ar
    37   19   51 1
    38   20   21 ar
    39   20   52 1
    40   21   22 ar
    41   21   53 1
    42   22   23 ar
    43   22   54 1
    44   23   24 2
    45   24   25 1
    46   24   65 1
    47   25   55 1
    48   25   56 1
    49   26   27 2
    50   26   28 am
    51   28   29 am
    52   28   31 1
    53   29   30 2
    54   31   36 ar
    55   31   32 ar
    56   32   33 ar
    57   32   57 1
    58   33   34 ar
    59   33   58 1
    60   34   35 ar
    61   34   37 1
    62   35   36 ar
    63   35   59 1
    64   36   60 1
    65   37   38 1
    66   38   61 1
    67   38   62 1
    68   38   63 1
    69   39   40 2
    70   39   41 am
    71   41   64 1
@<TRIPOS>MOLECULE
ZINC64392155
   52    57     0     0     0
SMALL
USER_CHARGES

@<TRIPOS>ATOM
      1 C1         -0.0167    1.3779    0.0096 C.ar      1 <0>        -0.0814
      2 C2          1.1696    2.0885    0.0021 C.ar      1 <0>        -0.1062
      3 C3          2.3803    1.4160   -0.0135 C.ar      1 <0>         0.0480
      4 C4          2.3992    0.0230   -0.0212 C.ar      1 <0>         0.0277
      5 C5          1.2071   -0.6821   -0.0137 C.ar      1 <0>        -0.0736
      6 C6          0.0021   -0.0041    0.0020 C.ar      1 <0>        -0.1187
      7 C7         -1.2936   -0.7736    0.0102 C.3       1 <0>         0.1559
      8 N1         -1.7266   -1.0156   -1.3682 N.am      1 <0>        -0.5494
      9 C8         -2.5189   -0.1102   -1.9822 C.2       1 <0>         0.5610
     10 O1         -2.8753    0.8994   -1.4058 O.2       1 <0>        -0.4715
     11 C9         -2.9399   -0.3774   -3.3692 C.ar      1 <0>        -0.1638
     12 C10        -3.7558    0.5072   -4.0705 C.ar      1 <0>        -0.0017
     13 C11        -4.1217    0.2115   -5.3669 C.ar      1 <0>        -0.1375
     14 C12        -3.6829   -0.9568   -5.9710 C.ar      1 <0>        -0.0943
     15 C13        -2.8739   -1.8419   -5.2867 C.ar      1 <0>        -0.1212
     16 C14        -2.4954   -1.5614   -3.9828 C.ar      1 <0>         0.2142
     17 N2         -1.6833   -2.4235   -3.2602 N.am      1 <0>        -0.6433
     18 H1         -1.3686   -3.2441   -3.6707 H         1 <0>         0.4403
     19 C15        -1.3239   -2.1300   -1.9987 C.2       1 <0>         0.7038
     20 O2         -0.6074   -2.9097   -1.4014 O.2       1 <0>        -0.5158
     21 C16        -4.0936   -1.2638   -7.3880 C.3       1 <0>         0.3058
     22 H2         -4.1383   -2.3420   -7.5421 H         1 <0>         0.1702
     23 N3         -5.3958   -0.6541   -7.6830 N.pl3     1 <0>        -0.6158
     24 C17        -5.2485    0.1910   -8.6562 C.cat     1 <0>         0.5689
     25 N4         -3.9455    0.2390   -9.0857 N.pl3     1 <0>        -0.5018
     26 O3         -3.1716   -0.6674   -8.3129 O.3       1 <0>        -0.0904
     27 C18        -6.3466    1.0008   -9.2311 C.ar      1 <0>        -0.1050
     28 C19        -7.4200    1.3926   -8.4311 C.ar      1 <0>        -0.0527
     29 C20        -8.4408    2.1474   -8.9705 C.ar      1 <0>        -0.0740
     30 C21        -8.4024    2.5170  -10.3041 C.ar      1 <0>        -0.0211
     31 C22        -7.3384    2.1308  -11.1050 C.ar      1 <0>         0.1244
     32 C23        -6.3083    1.3791  -10.5728 C.ar      1 <0>        -0.0829
     33 F1         -7.3062    2.4943  -12.4058 F         1 <0>        -0.1007
     34 Cl1        -9.6910    3.4665  -10.9762 Cl        1 <0>         0.0059
     35 O4          3.6984   -0.3954   -0.0364 O.3       1 <0>        -0.3052
     36 C24         4.4664    0.7501   -0.4501 C.3       1 <0>         0.2124
     37 O5          3.6676    1.8697   -0.0238 O.3       1 <0>        -0.3055
     38 H3         -0.9598    1.9039    0.0259 H         1 <0>         0.1451
     39 H4          1.1520    3.1683    0.0081 H         1 <0>         0.1403
     40 H5          1.2188   -1.7620   -0.0196 H         1 <0>         0.1438
     41 H6         -1.1467   -1.7271    0.5176 H         1 <0>         0.1176
     42 H7         -2.0555   -0.1967    0.5345 H         1 <0>         0.1187
     43 H8         -4.0997    1.4177   -3.6024 H         1 <0>         0.1592
     44 H9         -4.7541    0.8942   -5.9150 H         1 <0>         0.1305
     45 H10        -2.5373   -2.7497   -5.7654 H         1 <0>         0.1550
     46 H11        -3.6081    0.8001   -9.8015 H         1 <0>         0.4907
     47 H12        -7.4520    1.1051   -7.3905 H         1 <0>         0.1586
     48 H13        -9.2720    2.4505   -8.3511 H         1 <0>         0.1727
     49 H14        -5.4775    1.0818  -11.1955 H         1 <0>         0.1642
     50 H15         5.4365    0.7605    0.0468 H         1 <0>         0.1369
     51 H16         4.5896    0.7578   -1.5331 H         1 <0>         0.0861
     52 H17        -6.2287   -0.8509   -7.2263 H         1 <0>         0.4757
@<TRIPOS>BOND
     1    1    6 ar
     2    1    2 ar
     3    1   38 1
     4    2    3 ar
     5    2   39 1
     6    3   37 1
     7    3    4 ar
     8    4    5 ar
     9    4   35 1
    10    5    6 ar
    11    5   40 1
    12    6    7 1
    13    7    8 1
    14    7   41 1
    15    7   42 1
    16    8   19 am
    17    8    9 am
    18    9   10 2
    19    9   11 1
    20   11   16 ar
    21   11   12 ar
    22   12   13 ar
    23   12   43 1
    24   13   14 ar
    25   13   44 1
    26   14   15 ar
    27   14   21 1
    28   15   16 ar
    29   15   45 1
    30   16   17 1
    31   17   18 1
    32   17   19 am
    33   19   20 2
    34   21   22 1
    35   21   26 1
    36   21   23 1
    37   23   24 2
    38   23   52 1
    39   24   25 1
    40   24   27 1
    41   25   26 1
    42   25   46 1
    43   27   32 ar
    44   27   28 ar
    45   28   29 ar
    46   28   47 1
    47   29   30 ar
    48   29   48 1
    49   30   31 ar
    50   30   34 1
    51   31   32 ar
    52   31   33 1
    53   32   49 1
    54   35   36 1
    55   36   37 1
    56   36   50 1
    57   36   51 1
@<TRIPOS>MOLECULE
ZINC38547651
   54    57     0     0     0
SMALL
USER_CHARGES

@<TRIPOS>ATOM
      1 C1          2.1393    1.1094    0.5235 C.3       1 <0>        -0.1425
      2 C2          1.9513   -0.3811    0.4054 C.ar      1 <0>         0.1844
      3 C3          2.3772   -1.0335   -0.7345 C.ar      1 <0>        -0.1694
      4 C4          2.2015   -2.4068   -0.8379 C.ar      1 <0>         0.0434
      5 C5          1.6015   -3.0767    0.2134 C.ar      1 <0>        -0.1960
      6 C6          1.1968   -2.3557    1.3320 C.ar      1 <0>         0.4470
      7 N1          1.3869   -1.0467    1.3950 N.ar      1 <0>        -0.5030
      8 N2          0.5922   -3.0160    2.3953 N.pl3     1 <0>        -0.7074
      9 C7          0.3837   -4.4648    2.3347 C.3       1 <0>         0.2484
     10 H1         -0.0585   -4.7284    1.3740 H         1 <0>         0.1251
     11 C8          1.7068   -5.1696    2.4889 C.ar      1 <0>        -0.1014
     12 C9          2.7161   -4.5893    3.2345 C.ar      1 <0>        -0.1097
     13 C10         3.9296   -5.2356    3.3766 C.ar      1 <0>        -0.0800
     14 C11         4.1341   -6.4631    2.7727 C.ar      1 <0>        -0.0806
     15 C12         3.1240   -7.0434    2.0268 C.ar      1 <0>        -0.0762
     16 C13         1.9090   -6.3988    1.8896 C.ar      1 <0>        -0.0919
     17 Br1         5.7943   -7.3474    2.9662 Br        1 <0>        -0.0277
     18 C14        -0.5424   -4.8860    3.4465 C.2       1 <0>        -0.1777
     19 C15        -1.6088   -5.7290    3.1930 C.2       1 <0>        -0.1037
     20 C16        -2.4217   -6.0884    4.2154 C.2       1 <0>        -0.1664
     21 S1         -1.6875   -5.2272    5.5960 S.3       1 <0>         0.1952
     22 C17        -0.3408   -4.4477    4.7208 C.2       1 <0>         0.0675
     23 N3          0.6583   -3.6060    5.2138 N.am      1 <0>        -0.6280
     24 C18         0.7546   -3.3782    6.5387 C.2       1 <0>         0.6023
     25 O1         -0.0294   -3.9064    7.3055 O.2       1 <0>        -0.4666
     26 C19         1.8037   -2.4943    7.0563 C.2       1 <0>        -0.1049
     27 C20         2.0160   -2.1839    8.3691 C.2       1 <0>        -0.0853
     28 C21         3.1164   -1.3131    8.4050 C.2       1 <0>        -0.2170
     29 C22         3.5224   -1.1325    7.1289 C.2       1 <0>         0.0090
     30 O2          2.7322   -1.8499    6.3195 O.3       1 <0>        -0.1784
     31 C23        -3.6335   -6.9839    4.1929 C.3       1 <0>        -0.0738
     32 C24        -1.8636   -6.2403    1.7985 C.3       1 <0>        -0.1047
     33 H2          3.1078    1.3187    0.9776 H         1 <0>         0.1143
     34 H3          2.0978    1.5605   -0.4680 H         1 <0>         0.1188
     35 H4          1.3481    1.5272    1.1461 H         1 <0>         0.0943
     36 H5          2.8419   -0.4810   -1.5377 H         1 <0>         0.1816
     37 H6          2.5257   -2.9401   -1.7193 H         1 <0>         0.1767
     38 H7          1.4491   -4.1448    0.1660 H         1 <0>         0.1773
     39 H8          0.3083   -2.5175    3.1775 H         1 <0>         0.4123
     40 H9          2.5564   -3.6307    3.7056 H         1 <0>         0.1109
     41 H10         4.7181   -4.7820    3.9587 H         1 <0>         0.1371
     42 H11         3.2832   -8.0018    1.5551 H         1 <0>         0.1441
     43 H12         1.1188   -6.8537    1.3107 H         1 <0>         0.1410
     44 H13         1.2831   -3.1851    4.6027 H         1 <0>         0.4086
     45 H14         1.4472   -2.5392    9.2156 H         1 <0>         0.1687
     46 H15         3.5556   -0.8705    9.2868 H         1 <0>         0.1669
     47 H16         4.3504   -0.5147    6.8138 H         1 <0>         0.2182
     48 H17        -3.3277   -8.0138    4.3767 H         1 <0>         0.0845
     49 H18        -4.3326   -6.6686    4.9675 H         1 <0>         0.0773
     50 H19        -4.1168   -6.9168    3.2182 H         1 <0>         0.0851
     51 H20        -1.3268   -7.1775    1.6514 H         1 <0>         0.0762
     52 H21        -2.9320   -6.4085    1.6627 H         1 <0>         0.0777
     53 H22        -1.5164   -5.5049    1.0727 H         1 <0>         0.0612
     54 H23         1.1006   -0.5647    2.1866 H         1 <0>         0.4375
@<TRIPOS>BOND
     1    1    2 1
     2    1   33 1
     3    1   34 1
     4    1   35 1
     5    2    7 ar
     6    2    3 ar
     7    3    4 ar
     8    3   36 1
     9    4    5 ar
    10    4   37 1
    11    5    6 ar
    12    5   38 1
    13    6    7 ar
    14    6    8 1
    15    7   54 1
    16    8    9 1
    17    8   39 1
    18    9   10 1
    19    9   11 1
    20    9   18 1
    21   11   16 ar
    22   11   12 ar
    23   12   13 ar
    24   12   40 1
    25   13   14 ar
    26   13   41 1
    27   14   15 ar
    28   14   17 1
    29   15   16 ar
    30   15   42 1
    31   16   43 1
    32   18   22 2
    33   18   19 1
    34   19   20 2
    35   19   32 1
    36   20   21 1
    37   20   31 1
    38   21   22 1
    39   22   23 1
    40   23   24 am
    41   23   44 1
    42   24   25 2
    43   24   26 1
    44   26   30 1
    45   26   27 2
    46   27   28 1
    47   27   45 1
    48   28   29 2
    49   28   46 1
    50   29   30 1
    51   29   47 1
    52   31   48 1
    53   31   49 1
    54   31   50 1
    55   32   51 1
    56   32   52 1
    57   32   53 1
@<TRIPOS>MOLECULE
ZINC39652864
   59    62     0     0     0
SMALL
USER_CHARGES

@<TRIPOS>ATOM
      1 C1          0.7927    1.4780   -3.5901 C.ar      1 <0>        -0.1085
      2 C2          2.0855    1.9620   -3.5221 C.ar      1 <0>        -0.0883
      3 C3          2.6793    2.1776   -2.2916 C.ar      1 <0>        -0.0882
      4 C4          1.9789    1.9087   -1.1295 C.ar      1 <0>        -0.0857
      5 C5          0.6861    1.4246   -1.1984 C.ar      1 <0>        -0.1057
      6 C6          0.0930    1.2093   -2.4284 C.ar      1 <0>        -0.0772
      7 C7         -1.3166    0.6816   -2.5030 C.3       1 <0>        -0.0901
      8 C8         -1.2875   -0.8478   -2.5359 C.3       1 <0>         0.1204
      9 N1         -2.6578   -1.3608   -2.6084 N.am      1 <0>        -0.7286
     10 C9         -2.8786   -2.6898   -2.6479 C.2       1 <0>         0.5194
     11 O1         -1.9429   -3.4610   -2.6233 O.2       1 <0>        -0.5180
     12 C10        -4.2882   -3.2176   -2.7225 C.3       1 <0>        -0.1134
     13 H1         -4.9811   -2.5136   -2.2615 H         1 <0>         0.1124
     14 C11        -4.3836   -4.5966   -2.0321 C.3       1 <0>         0.1159
     15 N2         -5.3311   -5.3696   -2.8692 N.am      1 <0>        -0.6194
     16 C12        -4.9886   -4.9893   -4.2606 C.3       1 <0>         0.0920
     17 C13        -4.6851   -3.4797   -4.1850 C.3       1 <0>        -0.0723
     18 C14        -3.5302   -3.1269   -5.1174 C.3       1 <0>        -0.1481
     19 C15        -3.9686   -3.3402   -6.5690 C.3       1 <0>        -0.0081
     20 N3         -5.1338   -2.4960   -6.8594 N.4       1 <0>        -0.5049
     21 C16        -6.2687   -2.9042   -6.0227 C.3       1 <0>        -0.0117
     22 C17        -5.9277   -2.6723   -4.5480 C.3       1 <0>        -0.1353
     23 C18        -6.2883   -6.2248   -2.4584 C.2       1 <0>         0.5832
     24 O2         -6.5354   -6.3369   -1.2734 O.2       1 <0>        -0.5093
     25 C19        -7.0375   -7.0264   -3.4485 C.ar      1 <0>        -0.1324
     26 C20        -6.5059   -7.2434   -4.7211 C.ar      1 <0>        -0.0956
     27 C21        -7.2093   -7.9926   -5.6405 C.ar      1 <0>        -0.1200
     28 C22        -8.4412   -8.5289   -5.3038 C.ar      1 <0>        -0.0090
     29 C23        -8.9738   -8.3170   -4.0428 C.ar      1 <0>        -0.1108
     30 C24        -8.2770   -7.5744   -3.1130 C.ar      1 <0>        -0.0429
     31 Cl1        -9.3215   -9.4700   -6.4670 Cl        1 <0>        -0.0481
     32 Br1         4.4483    2.8393   -2.1980 Br        1 <0>        -0.0400
     33 H2          0.3274    1.3138   -4.5508 H         1 <0>         0.1291
     34 H3          2.6321    2.1716   -4.4297 H         1 <0>         0.1353
     35 H4          2.4422    2.0765   -0.1685 H         1 <0>         0.1368
     36 H5          0.1391    1.2146   -0.2911 H         1 <0>         0.1330
     37 H6         -1.8763    1.0157   -1.6295 H         1 <0>         0.0848
     38 H7         -1.7971    1.0553   -3.4072 H         1 <0>         0.0802
     39 H8         -0.7277   -1.1819   -3.4094 H         1 <0>         0.0744
     40 H9         -0.8070   -1.2215   -1.6317 H         1 <0>         0.0769
     41 H10        -3.4062   -0.7441   -2.6280 H         1 <0>         0.4012
     42 H11        -3.4077   -5.0818   -2.0159 H         1 <0>         0.1003
     43 H12        -4.7721   -4.4885   -1.0194 H         1 <0>         0.0991
     44 H13        -4.1102   -5.5383   -4.5998 H         1 <0>         0.0912
     45 H14        -5.8333   -5.1737   -4.9243 H         1 <0>         0.0948
     46 H15        -3.2504   -2.0836   -4.9714 H         1 <0>         0.0978
     47 H16        -2.6762   -3.7675   -4.8973 H         1 <0>         0.1279
     48 H17        -3.1508   -3.0730   -7.2382 H         1 <0>         0.1405
     49 H18        -4.2325   -4.3872   -6.7185 H         1 <0>         0.1327
     50 H19        -4.9054   -1.5322   -6.6672 H         1 <0>         0.4285
     51 H20        -7.1466   -2.3156   -6.2893 H         1 <0>         0.1411
     52 H21        -6.4779   -3.9615   -6.1852 H         1 <0>         0.1321
     53 H22        -6.7640   -2.9924   -3.9265 H         1 <0>         0.1192
     54 H23        -5.7346   -1.6126   -4.3815 H         1 <0>         0.0984
     55 H24        -5.5458   -6.8251   -4.9850 H         1 <0>         0.1407
     56 H25        -6.7991   -8.1612   -6.6253 H         1 <0>         0.1416
     57 H26        -9.9349   -8.7374   -3.7861 H         1 <0>         0.1473
     58 H27        -8.6913   -7.4133   -2.1287 H         1 <0>         0.1484
     59 H28        -5.3831   -2.5923   -7.8324 H         1 <0>         0.4348
@<TRIPOS>BOND
     1    1    6 ar
     2    1    2 ar
     3    1   33 1
     4    2    3 ar
     5    2   34 1
     6    3    4 ar
     7    3   32 1
     8    4    5 ar
     9    4   35 1
    10    5    6 ar
    11    5   36 1
    12    6    7 1
    13    7    8 1
    14    7   37 1
    15    7   38 1
    16    8    9 1
    17    8   39 1
    18    8   40 1
    19    9   10 am
    20    9   41 1
    21   10   11 2
    22   10   12 1
    23   12   13 1
    24   12   17 1
    25   12   14 1
    26   14   15 1
    27   14   42 1
    28   14   43 1
    29   15   16 1
    30   15   23 am
    31   16   17 1
    32   16   44 1
    33   16   45 1
    34   17   22 1
    35   17   18 1
    36   18   19 1
    37   18   46 1
    38   18   47 1
    39   19   20 1
    40   19   48 1
    41   19   49 1
    42   20   21 1
    43   20   50 1
    44   20   59 1
    45   21   22 1
    46   21   51 1
    47   21   52 1
    48   22   53 1
    49   22   54 1
    50   23   24 2
    51   23   25 1
    52   25   30 ar
    53   25   26 ar
    54   26   27 ar
    55   26   55 1
    56   27   28 ar
    57   27   56 1
    58   28   29 ar
    59   28   31 1
    60   29   30 ar
    61   29   57 1
    62   30   58 1
@<TRIPOS>MOLECULE
ZINC39668338
   68    73     0     0     0
SMALL
USER_CHARGES

@<TRIPOS>ATOM
      1 C1         -0.1251    1.2471    0.4002 C.ar      1 <0>        -0.0664
      2 C2          1.0766    1.9184    0.4796 C.ar      1 <0>        -0.1518
      3 C3          2.2660    1.2100    0.5498 C.ar      1 <0>         0.1197
      4 C4          2.2548   -0.1762    0.5403 C.ar      1 <0>        -0.1482
      5 C5          1.0591   -0.8580    0.4608 C.ar      1 <0>        -0.0574
      6 C6         -0.1425   -0.1495    0.3907 C.ar      1 <0>        -0.0475
      7 C7         -1.4263   -0.8741    0.3064 C.2       1 <0>         0.0774
      8 C8         -1.5749   -2.2315    0.2944 C.2       1 <0>        -0.2010
      9 C9         -2.9455   -2.4943    0.2058 C.2       1 <0>        -0.0932
     10 C10        -3.5828   -1.2733    0.1669 C.2       1 <0>        -0.0944
     11 O1         -2.6423   -0.3073    0.2345 O.3       1 <0>        -0.1572
     12 C11        -5.0291   -1.0606    0.0743 C.2       1 <0>         0.6347
     13 O2         -5.7827   -2.0152    0.0241 O.2       1 <0>        -0.5107
     14 N1         -5.5254    0.1921    0.0445 N.am      1 <0>        -0.6180
     15 C12        -4.7735    1.4683    0.0886 C.3       1 <0>         0.1084
     16 C13        -5.5140    2.3922   -0.9042 C.3       1 <0>        -0.1138
     17 H1         -5.0367    2.3570   -1.8836 H         1 <0>         0.1120
     18 C14        -6.9398    1.8213   -0.9827 C.3       1 <0>        -0.0719
     19 C15        -6.9466    0.6045   -0.0461 C.3       1 <0>         0.1103
     20 C16        -7.2558    1.3829   -2.4095 C.3       1 <0>        -0.1351
     21 C17        -8.6979    0.8721   -2.4739 C.3       1 <0>        -0.0112
     22 N2         -9.6156    1.9378   -2.0535 N.4       1 <0>        -0.5046
     23 C18        -9.3660    2.2892   -0.6503 C.3       1 <0>        -0.0080
     24 C19        -7.9520    2.8597   -0.5087 C.3       1 <0>        -0.1468
     25 C20        -5.5404    3.8066   -0.3850 C.2       1 <0>         0.5192
     26 O3         -5.5563    4.0137    0.8099 O.2       1 <0>        -0.5198
     27 N3         -5.5463    4.8415   -1.2484 N.am      1 <0>        -0.7227
     28 C21        -5.5719    6.2165   -0.7436 C.3       1 <0>         0.1675
     29 C22        -5.5736    7.1778   -1.9042 C.ar      1 <0>        -0.1498
     30 C23        -4.3782    7.6335   -2.4294 C.ar      1 <0>        -0.0602
     31 C24        -4.3740    8.5100   -3.4944 C.ar      1 <0>        -0.1375
     32 C25        -5.5750    8.9443   -4.0502 C.ar      1 <0>         0.1236
     33 C26        -6.7691    8.4854   -3.5094 C.ar      1 <0>        -0.1784
     34 C27        -6.7709    7.6029   -2.4518 C.ar      1 <0>        -0.0514
     35 C28        -7.8916    9.1382   -4.2926 C.3       1 <0>        -0.1108
     36 C29        -7.1479   10.2784   -5.0276 C.3       1 <0>         0.0487
     37 O4         -5.7990    9.7856   -5.0967 O.3       1 <0>        -0.3008
     38 F1          3.4405    1.8729    0.6274 F         1 <0>        -0.1299
     39 H2         -1.0514    1.8000    0.3500 H         1 <0>         0.1363
     40 H3          1.0912    2.9983    0.4866 H         1 <0>         0.1440
     41 H4          3.1845   -0.7230    0.5949 H         1 <0>         0.1481
     42 H5          1.0517   -1.9380    0.4528 H         1 <0>         0.1435
     43 H6         -0.7830   -2.9642    0.3438 H         1 <0>         0.1650
     44 H7         -3.4141   -3.4668    0.1736 H         1 <0>         0.1673
     45 H8         -4.8003    1.8907    1.0931 H         1 <0>         0.1023
     46 H9         -3.7433    1.3137   -0.2322 H         1 <0>         0.1023
     47 H10        -7.5493   -0.1982   -0.4710 H         1 <0>         0.0922
     48 H11        -7.3246    0.8859    0.9367 H         1 <0>         0.0885
     49 H12        -7.1395    2.2306   -3.0848 H         1 <0>         0.0970
     50 H13        -6.5737    0.5856   -2.7046 H         1 <0>         0.1184
     51 H14        -8.9320    0.5734   -3.4957 H         1 <0>         0.1403
     52 H15        -8.8093    0.0143   -1.8106 H         1 <0>         0.1348
     53 H16        -9.4724    2.7512   -2.6331 H         1 <0>         0.4274
     54 H17       -10.0925    3.0352   -0.3280 H         1 <0>         0.1396
     55 H18        -9.4617    1.3979   -0.0303 H         1 <0>         0.1340
     56 H19        -7.7609    3.1034    0.5364 H         1 <0>         0.1280
     57 H20        -7.8606    3.7605   -1.1155 H         1 <0>         0.0972
     58 H21        -5.5335    4.6758   -2.2041 H         1 <0>         0.4020
     59 H22        -6.4707    6.3673   -0.1457 H         1 <0>         0.0791
     60 H23        -4.6911    6.3935   -0.1265 H         1 <0>         0.0829
     61 H24        -3.4430    7.3015   -2.0032 H         1 <0>         0.1351
     62 H25        -3.4360    8.8607   -3.8989 H         1 <0>         0.1348
     63 H26        -7.7066    7.2460   -2.0476 H         1 <0>         0.1227
     64 H27        -8.3296    8.4373   -5.0033 H         1 <0>         0.0909
     65 H28        -8.6528    9.5380   -3.6226 H         1 <0>         0.0943
     66 H29        -7.5572   10.4251   -6.0271 H         1 <0>         0.1119
     67 H30        -7.1923   11.2027   -4.4515 H         1 <0>         0.0829
     68 H31       -10.5677    1.6194   -2.1548 H         1 <0>         0.4344
@<TRIPOS>BOND
     1    1    6 ar
     2    1    2 ar
     3    1   39 1
     4    2    3 ar
     5    2   40 1
     6    3    4 ar
     7    3   38 1
     8    4    5 ar
     9    4   41 1
    10    5    6 ar
    11    5   42 1
    12    6    7 1
    13    7   11 1
    14    7    8 2
    15    8    9 1
    16    8   43 1
    17    9   10 2
    18    9   44 1
    19   10   11 1
    20   10   12 1
    21   12   13 2
    22   12   14 am
    23   14   19 1
    24   14   15 1
    25   15   16 1
    26   15   45 1
    27   15   46 1
    28   16   17 1
    29   16   18 1
    30   16   25 1
    31   18   24 1
    32   18   19 1
    33   18   20 1
    34   19   47 1
    35   19   48 1
    36   20   21 1
    37   20   49 1
    38   20   50 1
    39   21   22 1
    40   21   51 1
    41   21   52 1
    42   22   23 1
    43   22   53 1
    44   22   68 1
    45   23   24 1
    46   23   54 1
    47   23   55 1
    48   24   56 1
    49   24   57 1
    50   25   26 2
    51   25   27 am
    52   27   28 1
    53   27   58 1
    54   28   29 1
    55   28   59 1
    56   28   60 1
    57   29   34 ar
    58   29   30 ar
    59   30   31 ar
    60   30   61 1
    61   31   32 ar
    62   31   62 1
    63   32   37 1
    64   32   33 ar
    65   33   34 ar
    66   33   35 1
    67   34   63 1
    68   35   36 1
    69   35   64 1
    70   35   65 1
    71   36   37 1
    72   36   66 1
    73   36   67 1
@<TRIPOS>MOLECULE
ZINC39678251
   71    75     0     0     0
SMALL
USER_CHARGES

@<TRIPOS>ATOM
      1 C1          5.0865   -0.8130   -1.7748 C.ar      1 <0>        -0.1193
      2 C2          5.9604   -1.7351   -2.3215 C.ar      1 <0>        -0.0999
      3 C3          5.6520   -3.0808   -2.2954 C.ar      1 <0>        -0.1267
      4 C4          4.4622   -3.5081   -1.7190 C.ar      1 <0>         0.1826
      5 C5          3.5869   -2.5794   -1.1709 C.ar      1 <0>        -0.1245
      6 C6          3.9016   -1.2348   -1.2005 C.ar      1 <0>        -0.0927
      7 C7          2.2950   -3.0382   -0.5452 C.3       1 <0>         0.1728
      8 N1          2.5571   -3.5347    0.8080 N.am      1 <0>        -0.7161
      9 C8          1.5426   -4.0001    1.5633 C.2       1 <0>         0.5124
     10 O1          0.4126   -4.0079    1.1228 O.2       1 <0>        -0.5166
     11 C9          1.8122   -4.5108    2.9552 C.3       1 <0>        -0.1134
     12 H1          2.8070   -4.2094    3.2832 H         1 <0>         0.1140
     13 C10         0.7404   -3.9873    3.9374 C.3       1 <0>         0.1229
     14 N2         -0.2679   -5.0713    4.0038 N.am      1 <0>        -0.6122
     15 C11         0.5319   -6.3196    3.9966 C.3       1 <0>         0.0966
     16 C12         1.6747   -6.0419    2.9998 C.3       1 <0>        -0.0693
     17 C13         2.9719   -6.6749    3.4937 C.3       1 <0>        -0.1355
     18 C14         2.8307   -8.1995    3.4738 C.3       1 <0>        -0.0099
     19 N3          2.5331   -8.6475    2.1080 N.4       1 <0>        -0.5064
     20 C15         1.2380   -8.1087    1.6753 C.3       1 <0>        -0.0106
     21 C16         1.3120   -6.5802    1.6191 C.3       1 <0>        -0.1505
     22 C17        -1.6090   -4.9497    4.0588 C.2       1 <0>         0.5884
     23 O2         -2.1244   -3.8525    3.9646 O.2       1 <0>        -0.4955
     24 C18        -2.4520   -6.1483    4.2334 C.ar      1 <0>        -0.1839
     25 C19        -2.0082   -7.2085    5.0281 C.ar      1 <0>        -0.0403
     26 C20        -2.7989   -8.3249    5.1877 C.ar      1 <0>        -0.1736
     27 C21        -4.0349   -8.3999    4.5615 C.ar      1 <0>         0.1635
     28 C22        -4.4825   -7.3538    3.7720 C.ar      1 <0>        -0.1973
     29 C23        -3.7013   -6.2256    3.6085 C.ar      1 <0>         0.1933
     30 F1         -4.1403   -5.2027    2.8429 F         1 <0>        -0.1048
     31 F2         -4.8048   -9.4984    4.7223 F         1 <0>        -0.1188
     32 N4          4.1469   -4.8685   -1.6913 N.pl3     1 <0>        -0.6717
     33 C24         3.4018   -5.4869   -2.7963 C.3       1 <0>         0.1448
     34 C25         4.1897   -6.6981   -3.3053 C.3       1 <0>        -0.1407
     35 C26         4.4781   -7.6421   -2.1358 C.3       1 <0>        -0.1131
     36 C27         5.3289   -6.9170   -1.0906 C.3       1 <0>        -0.1433
     37 C28         4.5592   -5.7095   -0.5593 C.3       1 <0>         0.1513
     38 H2          5.3323    0.2385   -1.7926 H         1 <0>         0.1279
     39 H3          6.8850   -1.4022   -2.7697 H         1 <0>         0.1268
     40 H4          6.3347   -3.8003   -2.7227 H         1 <0>         0.1229
     41 H5          3.2214   -0.5121   -0.7745 H         1 <0>         0.1261
     42 H6          1.5977   -2.2018   -0.4966 H         1 <0>         0.0741
     43 H7          1.8629   -3.8369   -1.1479 H         1 <0>         0.0780
     44 H8          3.4609   -3.5284    1.1603 H         1 <0>         0.3986
     45 H9          1.1779   -3.8145    4.9206 H         1 <0>         0.0914
     46 H10         0.2893   -3.0716    3.5550 H         1 <0>         0.0988
     47 H11         0.9347   -6.5191    4.9896 H         1 <0>         0.0897
     48 H12        -0.0751   -7.1584    3.6558 H         1 <0>         0.0875
     49 H13         3.7933   -6.3771    2.8420 H         1 <0>         0.0980
     50 H14         3.1750   -6.3416    4.5115 H         1 <0>         0.1231
     51 H15         3.7620   -8.6549    3.8104 H         1 <0>         0.1407
     52 H16         2.0199   -8.4978    4.1385 H         1 <0>         0.1331
     53 H17         3.2564   -8.3229    1.4838 H         1 <0>         0.4268
     54 H18         0.9953   -8.4971    0.6862 H         1 <0>         0.1380
     55 H19         0.4652   -8.4090    2.3828 H         1 <0>         0.1324
     56 H20         0.3447   -6.1801    1.3152 H         1 <0>         0.1319
     57 H21         2.0733   -6.2790    0.8996 H         1 <0>         0.0964
     58 H22        -1.0465   -7.1527    5.5163 H         1 <0>         0.1468
     59 H23        -2.4558   -9.1445    5.8017 H         1 <0>         0.1522
     60 H24        -5.4453   -7.4180    3.2868 H         1 <0>         0.1615
     61 H25         2.4233   -5.8104   -2.4414 H         1 <0>         0.0480
     62 H26         3.2796   -4.7649   -3.6038 H         1 <0>         0.0725
     63 H27         3.6035   -7.2224   -4.0600 H         1 <0>         0.0709
     64 H28         5.1301   -6.3627   -3.7426 H         1 <0>         0.0681
     65 H29         3.5379   -7.9575   -1.6834 H         1 <0>         0.0514
     66 H30         5.0172   -8.5168   -2.4996 H         1 <0>         0.0638
     67 H31         5.5535   -7.5971   -0.2689 H         1 <0>         0.0610
     68 H32         6.2586   -6.5796   -1.5487 H         1 <0>         0.0717
     69 H33         5.2004   -5.1345    0.1087 H         1 <0>         0.0670
     70 H34         3.6772   -6.0516   -0.0179 H         1 <0>         0.0332
     71 H35         2.5008   -9.6557    2.0856 H         1 <0>         0.4337
@<TRIPOS>BOND
     1    1    6 ar
     2    1    2 ar
     3    1   38 1
     4    2    3 ar
     5    2   39 1
     6    3    4 ar
     7    3   40 1
     8    4    5 ar
     9    4   32 1
    10    5    6 ar
    11    5    7 1
    12    6   41 1
    13    7    8 1
    14    7   42 1
    15    7   43 1
    16    8    9 am
    17    8   44 1
    18    9   10 2
    19    9   11 1
    20   11   12 1
    21   11   16 1
    22   11   13 1
    23   13   14 1
    24   13   45 1
    25   13   46 1
    26   14   15 1
    27   14   22 am
    28   15   16 1
    29   15   47 1
    30   15   48 1
    31   16   21 1
    32   16   17 1
    33   17   18 1
    34   17   49 1
    35   17   50 1
    36   18   19 1
    37   18   51 1
    38   18   52 1
    39   19   20 1
    40   19   53 1
    41   19   71 1
    42   20   21 1
    43   20   54 1
    44   20   55 1
    45   21   56 1
    46   21   57 1
    47   22   23 2
    48   22   24 1
    49   24   29 ar
    50   24   25 ar
    51   25   26 ar
    52   25   58 1
    53   26   27 ar
    54   26   59 1
    55   27   28 ar
    56   27   31 1
    57   28   29 ar
    58   28   60 1
    59   29   30 1
    60   32   37 1
    61   32   33 1
    62   33   34 1
    63   33   61 1
    64   33   62 1
    65   34   35 1
    66   34   63 1
    67   34   64 1
    68   35   36 1
    69   35   65 1
    70   35   66 1
    71   36   37 1
    72   36   67 1
    73   36   68 1
    74   37   69 1
    75   37   70 1
@<TRIPOS>MOLECULE
ZINC08589501
   45    48     0     0     0
SMALL
USER_CHARGES

@<TRIPOS>ATOM
      1 C1         -0.0869    1.3680    0.0438 C.ar      1 <0>         0.0069
      2 C2          1.1006    2.0753    0.0465 C.ar      1 <0>        -0.1406
      3 C3          2.3078    1.3995    0.0405 C.ar      1 <0>         0.0063
      4 C4          2.3256    0.0161    0.0317 C.ar      1 <0>        -0.1418
      5 C5          1.1374   -0.6900    0.0289 C.ar      1 <0>        -0.0095
      6 C6         -0.0685   -0.0142    0.0349 C.ar      1 <0>        -0.6446
      7 S1         -1.5828   -0.9151    0.0319 S.o2      1 <0>         2.6228
      8 O1         -1.2941   -2.1965    0.5740 O.2       1 <0>        -0.9297
      9 O2         -2.5676   -0.0560    0.5900 O.2       1 <0>        -0.9603
     10 C7         -2.0336   -1.1707   -1.6522 C.2       1 <0>        -0.9702
     11 C8         -2.3495   -0.0712   -2.4686 C.2       1 <0>         0.4647
     12 C9         -2.7209   -0.3351   -3.8730 C.ar      1 <0>        -0.1592
     13 C10        -3.0459    0.7065   -4.7424 C.ar      1 <0>        -0.0365
     14 C11        -3.3846    0.4330   -6.0362 C.ar      1 <0>        -0.1446
     15 C12        -3.4081   -0.8882   -6.4976 C.ar      1 <0>        -0.0940
     16 C13        -3.0868   -1.9368   -5.6420 C.ar      1 <0>        -0.1178
     17 C14        -2.7405   -1.6657   -4.3232 C.ar      1 <0>         0.2118
     18 N1         -2.4152   -2.6849   -3.4516 N.pl3     1 <0>        -0.6321
     19 H1         -2.4301   -3.6017   -3.7679 H         1 <0>         0.4070
     20 C15        -2.0699   -2.4333   -2.1624 C.2       1 <0>         0.5481
     21 O3         -1.7567   -3.4712   -1.3570 O.3       1 <0>        -0.6233
     22 C16        -3.7770   -1.1709   -7.9022 C.2       1 <0>         0.5699
     23 O4         -3.7984   -2.3172   -8.3060 O.2       1 <0>        -0.5140
     24 N2         -4.0893   -0.1574   -8.7340 N.am      1 <0>        -0.6672
     25 C17        -4.3471   -0.4154  -10.0862 C.ar      1 <0>         0.1123
     26 C18        -4.9779   -1.5937  -10.4612 C.ar      1 <0>        -0.0668
     27 C19        -5.2318   -1.8463  -11.7954 C.ar      1 <0>        -0.1412
     28 C20        -4.8574   -0.9256  -12.7598 C.ar      1 <0>         0.1116
     29 C21        -4.2280    0.2509  -12.3898 C.ar      1 <0>        -0.1723
     30 C22        -3.9767    0.5110  -11.0549 C.ar      1 <0>         0.1025
     31 F1         -3.3672    1.6611  -10.6930 F         1 <0>        -0.1270
     32 F2         -5.1063   -1.1760  -14.0638 F         1 <0>        -0.1321
     33 O5         -2.3182    1.0677   -2.0297 O.2       1 <0>        -0.5327
     34 Cl1         3.7998    2.2871    0.0434 Cl        1 <0>        -0.0757
     35 H2         -1.0294    1.8954    0.0530 H         1 <0>         0.1551
     36 H3          1.0861    3.1551    0.0531 H         1 <0>         0.1372
     37 H4          3.2677   -0.5119    0.0266 H         1 <0>         0.1369
     38 H5          1.1512   -1.7699    0.0217 H         1 <0>         0.1500
     39 H6         -3.0298    1.7280   -4.3921 H         1 <0>         0.1429
     40 H7         -3.6362    1.2407   -6.7076 H         1 <0>         0.1244
     41 H8         -3.1064   -2.9555   -6.0000 H         1 <0>         0.1430
     42 H9         -4.1355    0.7506   -8.3961 H         1 <0>         0.4175
     43 H10        -5.2697   -2.3129   -9.7102 H         1 <0>         0.1625
     44 H11        -5.7225   -2.7631  -12.0868 H         1 <0>         0.1475
     45 H12        -3.9369    0.9675  -13.1435 H         1 <0>         0.1524
@<TRIPOS>BOND
     1    1    6 ar
     2    1    2 ar
     3    1   35 1
     4    2    3 ar
     5    2   36 1
     6    3    4 ar
     7    3   34 1
     8    4    5 ar
     9    4   37 1
    10    5    6 ar
    11    5   38 1
    12    6    7 1
    13    7    8 2
    14    7    9 2
    15    7   10 1
    16   10   20 2
    17   10   11 1
    18   11   12 1
    19   11   33 2
    20   12   17 ar
    21   12   13 ar
    22   13   14 ar
    23   13   39 1
    24   14   15 ar
    25   14   40 1
    26   15   16 ar
    27   15   22 1
    28   16   17 ar
    29   16   41 1
    30   17   18 1
    31   18   19 1
    32   18   20 1
    33   20   21 1
    34   22   23 2
    35   22   24 am
    36   24   25 1
    37   24   42 1
    38   25   30 ar
    39   25   26 ar
    40   26   27 ar
    41   26   43 1
    42   27   28 ar
    43   27   44 1
    44   28   29 ar
    45   28   32 1
    46   29   30 ar
    47   29   45 1
    48   30   31 1
@<TRIPOS>MOLECULE
ZINC01802135
   61    64     0     0     0
SMALL
USER_CHARGES
ethyl 2-[(2R,4S)-6-bromo-2-(2,4-dimethoxyphenyl)-4-phenyl-2,4-dihydro-1H-quinazolin-3-yl]acetate
@<TRIPOS>ATOM
      1 C1         -3.1387    3.0482    4.7799 C.3       1 <0>        -0.1587
      2 C2         -2.8647    1.7727    3.9806 C.3       1 <0>         0.0641
      3 O1         -2.6681    2.1106    2.5823 O.3       1 <0>        -0.3327
      4 C3         -2.5158    1.0896    1.7242 C.2       1 <0>         0.4684
      5 O2         -2.4507   -0.0434    2.1388 O.2       1 <0>        -0.4888
      6 C4         -2.4261    1.3566    0.2438 C.3       1 <0>        -0.0098
      7 C5         -3.5363   -0.7331   -0.2627 C.3       1 <0>         0.1336
      8 H1         -3.6828   -0.8813    0.8072 H         1 <0>         0.1653
      9 C6         -3.3920   -2.0724   -0.9358 C.ar      1 <0>        -0.1806
     10 C7         -4.5217   -2.8186   -1.2196 C.ar      1 <0>        -0.0161
     11 C8         -4.4032   -4.0527   -1.8319 C.ar      1 <0>        -0.1258
     12 C9         -3.1547   -4.5490   -2.1631 C.ar      1 <0>        -0.0268
     13 C10        -2.0224   -3.8091   -1.8837 C.ar      1 <0>        -0.1552
     14 C11        -2.1403   -2.5690   -1.2707 C.ar      1 <0>         0.2150
     15 N1         -0.9926   -1.8169   -0.9900 N.pl3     1 <0>        -0.7369
     16 C12        -1.1234   -0.6603   -0.0908 C.3       1 <0>         0.3340
     17 H2         -1.2144   -1.0031    0.9399 H         1 <0>         0.1752
     18 C13         0.0846    0.2303   -0.2269 C.ar      1 <0>        -0.2423
     19 C14         0.0636    1.2919   -1.1114 C.ar      1 <0>        -0.0466
     20 C15         1.1694    2.1103   -1.2384 C.ar      1 <0>        -0.2281
     21 C16         2.3046    1.8678   -0.4775 C.ar      1 <0>         0.2085
     22 C17         2.3280    0.8039    0.4107 C.ar      1 <0>        -0.2370
     23 C18         1.2169   -0.0159    0.5364 C.ar      1 <0>         0.2178
     24 O3          1.2366   -1.0595    1.4066 O.3       1 <0>        -0.3052
     25 C19         2.4355   -1.2535    2.1598 C.3       1 <0>         0.0197
     26 O4          3.3923    2.6728   -0.6032 O.3       1 <0>        -0.3022
     27 C20         3.2977    3.7499   -1.5375 C.3       1 <0>         0.0196
     28 Br1        -5.9526   -5.0660   -2.2173 Br        1 <0>        -0.0266
     29 C21        -4.7310   -0.0141   -0.8344 C.ar      1 <0>        -0.1405
     30 C22        -4.6261    0.6474   -2.0437 C.ar      1 <0>        -0.1210
     31 C23        -5.7230    1.3036   -2.5700 C.ar      1 <0>        -0.0985
     32 C24        -6.9226    1.3052   -1.8831 C.ar      1 <0>        -0.0894
     33 C25        -7.0261    0.6482   -0.6713 C.ar      1 <0>        -0.0998
     34 C26        -5.9302   -0.0113   -0.1469 C.ar      1 <0>        -0.0901
     35 H3         -2.2899    3.7254    4.6856 H         1 <0>         0.0724
     36 H4         -4.0352    3.5333    4.3938 H         1 <0>         0.0722
     37 H5         -3.2863    2.7945    5.8296 H         1 <0>         0.0922
     38 H6         -3.7136    1.0954    4.0749 H         1 <0>         0.0817
     39 H7         -1.9682    1.2875    4.3667 H         1 <0>         0.0823
     40 H8         -1.5399    1.9562    0.0357 H         1 <0>         0.1772
     41 H9         -3.3150    1.8965   -0.0826 H         1 <0>         0.1748
     42 H10        -5.4985   -2.4362   -0.9626 H         1 <0>         0.1428
     43 H11        -3.0657   -5.5139   -2.6401 H         1 <0>         0.1473
     44 H12        -1.0470   -4.1944   -2.1418 H         1 <0>         0.1452
     45 H13        -0.1351   -2.0524   -1.3776 H         1 <0>         0.4301
     46 H14        -0.8172    1.4795   -1.7076 H         1 <0>         0.1276
     47 H15         1.1506    2.9393   -1.9303 H         1 <0>         0.1483
     48 H16         3.2104    0.6136    1.0037 H         1 <0>         0.1540
     49 H17         2.3178   -2.1175    2.8139 H         1 <0>         0.1137
     50 H18         3.2689   -1.4246    1.4784 H         1 <0>         0.0680
     51 H19         2.6341   -0.3666    2.7614 H         1 <0>         0.0667
     52 H20         2.4775    4.4083   -1.2511 H         1 <0>         0.0648
     53 H21         4.2314    4.3123   -1.5393 H         1 <0>         0.1133
     54 H22         3.1120    3.3507   -2.5346 H         1 <0>         0.0648
     55 H23        -3.6879    0.6489   -2.5788 H         1 <0>         0.1158
     56 H24        -5.6421    1.8172   -3.5166 H         1 <0>         0.1375
     57 H25        -7.7789    1.8201   -2.2930 H         1 <0>         0.1378
     58 H26        -7.9632    0.6498   -0.1345 H         1 <0>         0.1394
     59 H27        -6.0110   -0.5246    0.7999 H         1 <0>         0.1344
     60 N2         -2.3324    0.0845   -0.5065 N.4       1 <0>        -0.3952
     61 H28        -2.2676    0.2926   -1.5098 H         1 <0>         0.4287
@<TRIPOS>BOND
     1    1    2 1
     2    1   35 1
     3    1   36 1
     4    1   37 1
     5    2    3 1
     6    2   38 1
     7    2   39 1
     8    3    4 1
     9    4    5 2
    10    4    6 1
    11    6   40 1
    12    6   41 1
    13    6   60 1
    14    7    8 1
    15    7    9 1
    16    7   29 1
    17    7   60 1
    18    9   14 ar
    19    9   10 ar
    20   10   11 ar
    21   10   42 1
    22   11   12 ar
    23   11   28 1
    24   12   13 ar
    25   12   43 1
    26   13   14 ar
    27   13   44 1
    28   14   15 1
    29   15   16 1
    30   15   45 1
    31   16   17 1
    32   16   18 1
    33   16   60 1
    34   18   23 ar
    35   18   19 ar
    36   19   20 ar
    37   19   46 1
    38   20   21 ar
    39   20   47 1
    40   21   22 ar
    41   21   26 1
    42   22   23 ar
    43   22   48 1
    44   23   24 1
    45   24   25 1
    46   25   49 1
    47   25   50 1
    48   25   51 1
    49   26   27 1
    50   27   52 1
    51   27   53 1
    52   27   54 1
    53   29   34 ar
    54   29   30 ar
    55   30   31 ar
    56   30   55 1
    57   31   32 ar
    58   31   56 1
    59   32   33 ar
    60   32   57 1
    61   33   34 ar
    62   33   58 1
    63   34   59 1
    64   60   61 1
@<TRIPOS>MOLECULE
ZINC28396934
   75    79     0     0     0
SMALL
USER_CHARGES
4-[[4-(dimethylcarbamoyl)phenyl]-[(1R,5S)-8-(2-pyridylmethyl)-8-azabicyclo[3.2.1]octan-3-ylidene]methyl]-N-ethyl-benzamide
@<TRIPOS>ATOM
      1 C1         -3.7290    8.8641    8.7539 C.3       1 <0>        -0.1677
      2 C2         -4.7063    8.6253    7.6011 C.3       1 <0>         0.1136
      3 N1         -4.6710    7.2123    7.2159 N.am      1 <0>        -0.7346
      4 C3         -5.4555    6.7671    6.2144 C.2       1 <0>         0.5508
      5 O1         -6.1924    7.5381    5.6308 O.2       1 <0>        -0.5329
      6 C4         -5.4200    5.3425    5.8260 C.ar      1 <0>        -0.1172
      7 C5         -6.2331    4.8805    4.7878 C.ar      1 <0>        -0.0558
      8 C6         -6.1996    3.5527    4.4268 C.ar      1 <0>        -0.1034
      9 C7         -5.3539    2.6680    5.0974 C.ar      1 <0>        -0.0401
     10 C8         -4.5453    3.1274    6.1379 C.ar      1 <0>        -0.1129
     11 C9         -4.5736    4.4560    6.4967 C.ar      1 <0>        -0.0846
     12 C10        -5.3190    1.2386    4.7083 C.2       1 <0>         0.0000
     13 C11        -4.2017    0.7131    4.1870 C.2       1 <0>        -0.1361
     14 C12        -4.1406   -0.7457    3.7818 C.3       1 <0>        -0.1096
     15 C13        -3.4766   -0.8207    2.3954 C.3       1 <0>         0.0439
     16 H1         -3.4138   -1.8611    2.0439 H         1 <0>         0.1521
     17 C14        -4.2553    0.1140    1.4437 C.3       1 <0>        -0.1397
     18 C15        -3.5551    1.4828    1.5647 C.3       1 <0>        -0.1296
     19 C16        -2.4119    1.2606    2.5793 C.3       1 <0>         0.0468
     20 H2         -1.5114    1.8575    2.3724 H         1 <0>         0.1555
     21 C17        -2.9613    1.5597    3.9855 C.3       1 <0>        -0.1040
     22 N2         -2.1325   -0.1975    2.5124 N.4       1 <0>        -0.4032
     23 C18        -1.2990   -0.5208    1.3467 C.3       1 <0>         0.0511
     24 C19        -0.0466    0.3168    1.3768 C.ar      1 <0>         0.0604
     25 C20         1.1078   -0.2002    1.9342 C.ar      1 <0>        -0.1459
     26 C21         2.2558    0.5766    1.9521 C.ar      1 <0>        -0.0661
     27 C22         2.1982    1.8521    1.4110 C.ar      1 <0>        -0.1382
     28 C23         1.0068    2.3033    0.8758 C.ar      1 <0>         0.1094
     29 N3         -0.0662    1.5365    0.8762 N.ar      1 <0>        -0.4673
     30 C24        -6.5193    0.3902    4.8956 C.ar      1 <0>        -0.0398
     31 C25        -7.1792   -0.1393    3.7857 C.ar      1 <0>        -0.1200
     32 C26        -8.2909   -0.9321    3.9590 C.ar      1 <0>        -0.1117
     33 C27        -8.7658   -1.1970    5.2461 C.ar      1 <0>        -0.1153
     34 C28        -8.1079   -0.6618    6.3565 C.ar      1 <0>        -0.0562
     35 C29        -6.9927    0.1258    6.1816 C.ar      1 <0>        -0.1020
     36 C30        -9.9629   -2.0418    5.4328 C.2       1 <0>         0.5516
     37 O2        -10.0621   -2.7460    6.4188 O.2       1 <0>        -0.5246
     38 N4        -10.9451   -2.0321    4.5100 N.am      1 <0>        -0.6145
     39 C31       -12.1737   -2.7963    4.7398 C.3       1 <0>         0.0826
     40 C32       -10.7843   -1.2573    3.2771 C.3       1 <0>         0.0600
     41 H3         -3.7555    9.9251    9.0432 H         1 <0>         0.0787
     42 H4         -2.7113    8.5967    8.4332 H         1 <0>         0.0623
     43 H5         -4.0177    8.2422    9.6141 H         1 <0>         0.0634
     44 H6         -5.7240    8.8927    7.9218 H         1 <0>         0.0703
     45 H7         -4.4177    9.2472    6.7409 H         1 <0>         0.0698
     46 H8         -4.0043    6.5148    7.7440 H         1 <0>         0.4175
     47 H9         -6.8879    5.5650    4.2691 H         1 <0>         0.1420
     48 H10        -6.8283    3.1954    3.6247 H         1 <0>         0.1319
     49 H11        -3.8942    2.4412    6.6590 H         1 <0>         0.1303
     50 H12        -3.9448    4.8122    7.2993 H         1 <0>         0.1309
     51 H13        -3.5484   -1.3067    4.5197 H         1 <0>         0.1006
     52 H14        -5.1597   -1.1576    3.7400 H         1 <0>         0.1241
     53 H15        -4.2015   -0.2797    0.4180 H         1 <0>         0.0974
     54 H16        -5.3071    0.1671    1.7613 H         1 <0>         0.1080
     55 H17        -3.1700    1.7859    0.5799 H         1 <0>         0.1017
     56 H18        -4.2755    2.2327    1.9234 H         1 <0>         0.1081
     57 H19        -3.2254    2.6239    4.0740 H         1 <0>         0.1192
     58 H20        -2.2137    1.3026    4.7503 H         1 <0>         0.0964
     59 H21        -1.0281   -1.5866    1.3739 H         1 <0>         0.1429
     60 H22        -1.8600   -0.3086    0.4246 H         1 <0>         0.1405
     61 H23         1.1164   -1.1984    2.3465 H         1 <0>         0.1439
     62 H24         3.1732    0.1975    2.3777 H         1 <0>         0.1485
     63 H25         3.0733    2.4850    1.4083 H         1 <0>         0.1497
     64 H26         0.9537    3.2954    0.4524 H         1 <0>         0.1707
     65 H27        -6.8148    0.0695    2.7907 H         1 <0>         0.1285
     66 H28        -8.7988   -1.3454    3.1002 H         1 <0>         0.1592
     67 H29        -8.4744   -0.8657    7.3517 H         1 <0>         0.1383
     68 H30        -6.4840    0.5396    7.0397 H         1 <0>         0.1318
     69 H31       -12.8518   -2.6666    3.8834 H         1 <0>         0.0816
     70 H32       -12.6651   -2.4340    5.6548 H         1 <0>         0.0660
     71 H33       -11.9266   -3.8621    4.8537 H         1 <0>         0.0670
     72 H34       -11.6826   -1.3715    2.6525 H         1 <0>         0.0844
     73 H35        -9.9055   -1.6234    2.7260 H         1 <0>         0.0777
     74 H36       -10.6441   -0.1953    3.5271 H         1 <0>         0.0691
     75 H37        -1.5673   -0.5635    3.3822 H         1 <0>         0.4426
@<TRIPOS>BOND
     1    1    2 1
     2    1   41 1
     3    1   42 1
     4    1   43 1
     5    2    3 1
     6    2   44 1
     7    2   45 1
     8    3    4 am
     9    3   46 1
    10    4    5 2
    11    4    6 1
    12    6   11 ar
    13    6    7 ar
    14    7    8 ar
    15    7   47 1
    16    8    9 ar
    17    8   48 1
    18    9   10 ar
    19    9   12 1
    20   10   11 ar
    21   10   49 1
    22   11   50 1
    23   12   13 2
    24   12   30 1
    25   13   21 1
    26   13   14 1
    27   14   15 1
    28   14   51 1
    29   14   52 1
    30   15   16 1
    31   15   22 1
    32   15   17 1
    33   17   18 1
    34   17   53 1
    35   17   54 1
    36   18   19 1
    37   18   55 1
    38   18   56 1
    39   19   20 1
    40   19   21 1
    41   19   22 1
    42   21   57 1
    43   21   58 1
    44   22   23 1
    45   22   75 1
    46   23   24 1
    47   23   59 1
    48   23   60 1
    49   24   29 ar
    50   24   25 ar
    51   25   26 ar
    52   25   61 1
    53   26   27 ar
    54   26   62 1
    55   27   28 ar
    56   27   63 1
    57   28   29 ar
    58   28   64 1
    59   30   35 ar
    60   30   31 ar
    61   31   32 ar
    62   31   65 1
    63   32   33 ar
    64   32   66 1
    65   33   34 ar
    66   33   36 1
    67   34   35 ar
    68   34   67 1
    69   35   68 1
    70   36   37 2
    71   36   38 am
    72   38   39 1
    73   38   40 1
    74   39   69 1
    75   39   70 1
    76   39   71 1
    77   40   72 1
    78   40   73 1
    79   40   74 1
@<TRIPOS>MOLECULE
ZINC38903746
   76    80     0     0     0
SMALL
USER_CHARGES

@<TRIPOS>ATOM
      1 C1         -0.0424    1.6153   -0.1473 C.3       1 <0>        -0.1418
      2 C2         -0.0306    0.0854   -0.1538 C.3       1 <0>        -0.0378
      3 C3          0.6930   -0.4244    1.0943 C.3       1 <0>        -0.1410
      4 C4         -1.4692   -0.4357   -0.1578 C.3       1 <0>        -0.1501
      5 C5          0.6852   -0.4063   -1.3854 C.ar      1 <0>        -0.0241
      6 C6          0.0161   -1.1981   -2.3013 C.ar      1 <0>        -0.1236
      7 C7          0.6669   -1.6511   -3.4310 C.ar      1 <0>        -0.0653
      8 C8          2.0001   -1.3096   -3.6480 C.ar      1 <0>        -0.0697
      9 C9          2.6691   -0.5118   -2.7222 C.ar      1 <0>        -0.0577
     10 C10         2.0071   -0.0596   -1.5987 C.ar      1 <0>        -0.1213
     11 C11         2.7052   -1.7942   -4.8608 C.2       1 <0>         0.3111
     12 N1          3.9870   -1.5383   -5.1780 N.2       1 <0>        -0.4871
     13 C12         4.2905   -2.1132   -6.3066 C.2       1 <0>         0.2210
     14 O1          3.2090   -2.7623   -6.7568 O.3       1 <0>        -0.0845
     15 N2          2.1844   -2.5473   -5.7978 N.2       1 <0>        -0.2942
     16 C13         5.6320   -2.0569   -6.9908 C.3       1 <0>         0.0962
     17 N3          6.4653   -3.1745   -6.5276 N.4       1 <0>        -0.3839
     18 C14         6.7435   -3.0146   -5.0953 C.3       1 <0>        -0.0185
     19 C15         7.5428   -4.2175   -4.5897 C.3       1 <0>        -0.1401
     20 C16         8.8629   -4.3068   -5.3608 C.3       1 <0>        -0.1315
     21 C17         8.5620   -4.3984   -6.8596 C.3       1 <0>        -0.1309
     22 H1          8.0072   -5.3141   -7.0641 H         1 <0>         0.1233
     23 C18         7.7249   -3.1889   -7.2810 C.3       1 <0>         0.0112
     24 C19         9.8555   -4.4104   -7.6327 C.2       1 <0>         0.5238
     25 O2         10.0847   -3.5392   -8.4447 O.2       1 <0>        -0.5281
     26 N4         10.7576   -5.3893   -7.4218 N.am      1 <0>        -0.7123
     27 C20        12.0151   -5.4009   -8.1734 C.3       1 <0>         0.1636
     28 C21        12.8403   -6.5900   -7.7535 C.ar      1 <0>        -0.0936
     29 C22        13.7316   -6.4756   -6.7022 C.ar      1 <0>        -0.1257
     30 C23        14.4902   -7.5643   -6.3137 C.ar      1 <0>        -0.0875
     31 C24        14.3599   -8.7701   -6.9749 C.ar      1 <0>        -0.1444
     32 C25        13.4659   -8.8881   -8.0307 C.ar      1 <0>         0.1696
     33 C26        12.7015   -7.7940   -8.4152 C.ar      1 <0>        -0.1412
     34 N5         13.3319  -10.1080   -8.7029 N.am      1 <0>        -0.5638
     35 C27        12.3399  -10.3708   -9.7521 C.3       1 <0>         0.0950
     36 C28        12.8373  -11.6385  -10.4814 C.3       1 <0>        -0.1328
     37 C29        13.6810  -12.3242   -9.3819 C.3       1 <0>        -0.1545
     38 C30        14.0989  -11.1881   -8.4746 C.2       1 <0>         0.5164
     39 O3         14.9940  -11.2444   -7.6581 O.2       1 <0>        -0.5031
     40 H2          0.9825    1.9865   -0.1445 H         1 <0>         0.0591
     41 H3         -0.5579    1.9784   -1.0364 H         1 <0>         0.0588
     42 H4         -0.5601    1.9709    0.7435 H         1 <0>         0.0662
     43 H5          0.1752   -0.0687    1.9851 H         1 <0>         0.0661
     44 H6          0.7013   -1.5143    1.0897 H         1 <0>         0.0581
     45 H7          1.7178   -0.0531    1.0971 H         1 <0>         0.0588
     46 H8         -1.9847   -0.0726   -1.0469 H         1 <0>         0.0613
     47 H9         -1.4608   -1.5257   -0.1623 H         1 <0>         0.0609
     48 H10        -1.9869   -0.0801    0.7331 H         1 <0>         0.0658
     49 H11        -1.0172   -1.4625   -2.1319 H         1 <0>         0.1422
     50 H12         0.1437   -2.2695   -4.1453 H         1 <0>         0.1330
     51 H13         3.7027   -0.2445   -2.8854 H         1 <0>         0.1368
     52 H14         2.5235    0.5625   -0.8826 H         1 <0>         0.1362
     53 H15         5.4931   -2.1300   -8.0695 H         1 <0>         0.1733
     54 H16         6.1230   -1.1138   -6.7508 H         1 <0>         0.1783
     55 H17         7.3202   -2.1033   -4.9371 H         1 <0>         0.1416
     56 H18         5.8031   -2.9480   -4.5482 H         1 <0>         0.1320
     57 H19         7.7499   -4.0960   -3.5264 H         1 <0>         0.1220
     58 H20         6.9669   -5.1294   -4.7471 H         1 <0>         0.0911
     59 H21         9.4615   -3.4177   -5.1629 H         1 <0>         0.0936
     60 H22         9.4107   -5.1944   -5.0441 H         1 <0>         0.1017
     61 H23         7.5090   -3.2509   -8.3477 H         1 <0>         0.1473
     62 H24         8.2807   -2.2738   -7.0763 H         1 <0>         0.1471
     63 H25        10.5743   -6.0861   -6.7724 H         1 <0>         0.4059
     64 H26        11.8002   -5.4661   -9.2400 H         1 <0>         0.0831
     65 H27        12.5686   -4.4843   -7.9696 H         1 <0>         0.0858
     66 H28        13.8356   -5.5339   -6.1839 H         1 <0>         0.1257
     67 H29        15.1856   -7.4717   -5.4926 H         1 <0>         0.1326
     68 H30        14.9530   -9.6200   -6.6711 H         1 <0>         0.1583
     69 H31        12.0023   -7.8838   -9.2334 H         1 <0>         0.1269
     70 H32        11.3605  -10.5505   -9.3087 H         1 <0>         0.0819
     71 H33        12.2926   -9.5309  -10.4453 H         1 <0>         0.0869
     72 H34        12.0006  -12.2695  -10.7814 H         1 <0>         0.0996
     73 H35        13.4547  -11.3772  -11.3408 H         1 <0>         0.0888
     74 H36        13.0790  -13.0512   -8.8367 H         1 <0>         0.1130
     75 H37        14.5580  -12.8033   -9.8171 H         1 <0>         0.1116
     76 H38         5.9747   -4.0433   -6.6779 H         1 <0>         0.4275
@<TRIPOS>BOND
     1    1    2 1
     2    1   40 1
     3    1   41 1
     4    1   42 1
     5    2    3 1
     6    2    4 1
     7    2    5 1
     8    3   43 1
     9    3   44 1
    10    3   45 1
    11    4   46 1
    12    4   47 1
    13    4   48 1
    14    5   10 ar
    15    5    6 ar
    16    6    7 ar
    17    6   49 1
    18    7    8 ar
    19    7   50 1
    20    8    9 ar
    21    8   11 1
    22    9   10 ar
    23    9   51 1
    24   10   52 1
    25   11   15 2
    26   11   12 1
    27   12   13 2
    28   13   14 1
    29   13   16 1
    30   14   15 1
    31   16   17 1
    32   16   53 1
    33   16   54 1
    34   17   23 1
    35   17   18 1
    36   17   76 1
    37   18   19 1
    38   18   55 1
    39   18   56 1
    40   19   20 1
    41   19   57 1
    42   19   58 1
    43   20   21 1
    44   20   59 1
    45   20   60 1
    46   21   22 1
    47   21   23 1
    48   21   24 1
    49   23   61 1
    50   23   62 1
    51   24   25 2
    52   24   26 am
    53   26   27 1
    54   26   63 1
    55   27   28 1
    56   27   64 1
    57   27   65 1
    58   28   33 ar
    59   28   29 ar
    60   29   30 ar
    61   29   66 1
    62   30   31 ar
    63   30   67 1
    64   31   32 ar
    65   31   68 1
    66   32   33 ar
    67   32   34 1
    68   33   69 1
    69   34   38 am
    70   34   35 1
    71   35   36 1
    72   35   70 1
    73   35   71 1
    74   36   37 1
    75   36   72 1
    76   36   73 1
    77   37   38 1
    78   37   74 1
    79   37   75 1
    80   38   39 2
@<TRIPOS>MOLECULE
ZINC04788297
   84    88     0     0     0
SMALL
USER_CHARGES

@<TRIPOS>ATOM
      1 C1          0.2006    1.4760    0.0161 C.3       1 <0>        -0.1095
      2 C2          0.1983   -0.0310    0.0073 C.ar      1 <0>        -0.1410
      3 C3          0.1928   -0.7278    1.2017 C.ar      1 <0>        -0.0702
      4 C4          0.1906   -2.1088    1.1973 C.ar      1 <0>        -0.1932
      5 C5          0.1940   -2.7979   -0.0088 C.ar      1 <0>         0.2119
      6 C6          0.1995   -2.0948   -1.2069 C.ar      1 <0>        -0.1948
      7 C7          0.1959   -0.7138   -1.1952 C.ar      1 <0>        -0.0712
      8 N1          0.1923   -4.1946   -0.0170 N.pl3     1 <0>        -0.6265
      9 C8          0.0786   -4.9351   -1.2813 C.3       1 <0>         0.1067
     10 C9         -1.1113   -5.8976   -1.1802 C.3       1 <0>         0.0888
     11 N2         -0.9988   -6.6531    0.0754 N.am      1 <0>        -0.6064
     12 C10        -0.8851   -5.9126    1.3397 C.3       1 <0>         0.1007
     13 C11         0.3104   -4.9501    1.2381 C.3       1 <0>         0.1338
     14 H1          0.2998   -4.2607    2.0824 H         1 <0>         0.1038
     15 C12         1.6169   -5.7463    1.2372 C.3       1 <0>        -0.1585
     16 C13        -1.0004   -8.0008    0.0675 C.2       1 <0>         0.5162
     17 O1         -0.9070   -8.6134    1.1101 O.2       1 <0>        -0.5386
     18 C14        -1.1183   -8.7466   -1.2367 C.3       1 <0>        -0.1269
     19 C15        -1.0950  -10.2524   -0.9670 C.3       1 <0>        -0.1254
     20 C16        -1.2128  -10.9982   -2.2713 C.2       1 <0>         0.5215
     21 O2         -1.3062  -10.3856   -3.3139 O.2       1 <0>        -0.5137
     22 N3         -1.2145  -12.3459   -2.2791 N.am      1 <0>        -0.6776
     23 C17        -1.2063  -13.0388   -3.4954 C.ar      1 <0>         0.1652
     24 C18        -0.5016  -12.5177   -4.5858 C.ar      1 <0>        -0.0406
     25 C19        -0.4766  -13.1696   -5.7789 C.ar      1 <0>        -0.1248
     26 C20        -1.1655  -14.3856   -5.9302 C.ar      1 <0>         0.1484
     27 C21        -1.8806  -14.9188   -4.8299 C.ar      1 <0>        -0.0917
     28 C22        -1.8877  -14.2310   -3.6070 C.ar      1 <0>        -0.0934
     29 C23        -2.5703  -16.1387   -4.9853 C.ar      1 <0>         0.0951
     30 C24        -2.5201  -16.7592   -6.1973 C.ar      1 <0>        -0.2254
     31 C25        -1.7948  -16.1806   -7.2483 C.ar      1 <0>         0.4974
     32 N4         -1.1522  -15.0411   -7.0969 N.ar      1 <0>        -0.5284
     33 N5         -1.7522  -16.8243   -8.4769 N.pl3     1 <0>        -0.5749
     34 C26        -2.3576  -18.1520   -8.6477 C.3       1 <0>         0.1070
     35 C27        -3.3326  -18.1012   -9.8282 C.3       1 <0>        -0.1074
     36 H2         -4.1608  -17.4346   -9.5877 H         1 <0>         0.0822
     37 C28        -2.6007  -17.5800  -11.0671 C.3       1 <0>        -0.1190
     38 C29        -2.0899  -16.1621  -10.8011 C.3       1 <0>        -0.1050
     39 H3         -2.9298  -15.5137  -10.5513 H         1 <0>         0.0814
     40 C30        -1.1062  -16.1883   -9.6332 C.3       1 <0>         0.0964
     41 C31        -1.3877  -15.6293  -12.0516 C.3       1 <0>        -0.1518
     42 C32        -3.8718  -19.5058  -10.1061 C.3       1 <0>        -0.1509
     43 C33        -3.3428  -16.7410   -3.8401 C.3       1 <0>        -0.1437
     44 H4         -0.8265    1.8409    0.0193 H         1 <0>         0.0652
     45 H5          0.7159    1.8334    0.9076 H         1 <0>         0.0630
     46 H6          0.7140    1.8437   -0.8724 H         1 <0>         0.0625
     47 H7          0.1905   -0.1914    2.1391 H         1 <0>         0.1214
     48 H8          0.1867   -2.6524    2.1305 H         1 <0>         0.1214
     49 H9          0.2025   -2.6275   -2.1463 H         1 <0>         0.1207
     50 H10         0.1958   -0.1666   -2.1263 H         1 <0>         0.1206
     51 H11        -0.0852   -4.2359   -2.1013 H         1 <0>         0.0971
     52 H12         0.9932   -5.5013   -1.4572 H         1 <0>         0.0664
     53 H13        -2.0420   -5.3303   -1.1838 H         1 <0>         0.0785
     54 H14        -1.0969   -6.5870   -2.0245 H         1 <0>         0.0966
     55 H15        -1.7997   -5.3464    1.5156 H         1 <0>         0.0746
     56 H16        -0.7213   -6.6118    2.1597 H         1 <0>         0.1042
     57 H17         2.4598   -5.0613    1.1462 H         1 <0>         0.0615
     58 H18         1.7022   -6.3056    2.1689 H         1 <0>         0.0682
     59 H19         1.6194   -6.4393    0.3958 H         1 <0>         0.0545
     60 H20        -2.0556   -8.4793   -1.7247 H         1 <0>         0.1041
     61 H21        -0.2828   -8.4805   -1.8842 H         1 <0>         0.1034
     62 H22        -0.1577  -10.5197   -0.4791 H         1 <0>         0.1128
     63 H23        -1.9305  -10.5185   -0.3196 H         1 <0>         0.1119
     64 H24        -1.2213  -12.8358   -1.4419 H         1 <0>         0.4229
     65 H25         0.0302  -11.5838   -4.4785 H         1 <0>         0.1597
     66 H26         0.0722  -12.7528   -6.6106 H         1 <0>         0.1541
     67 H27        -2.4266  -14.6311   -2.7608 H         1 <0>         0.1587
     68 H28        -3.0376  -17.6951   -6.3479 H         1 <0>         0.1794
     69 H29        -1.5775  -18.8861   -8.8495 H         1 <0>         0.0989
     70 H30        -2.8959  -18.4276   -7.7409 H         1 <0>         0.1029
     71 H31        -1.7578  -18.2333  -11.2925 H         1 <0>         0.0750
     72 H32        -3.2859  -17.5661  -11.9147 H         1 <0>         0.0828
     73 H33        -0.8190  -15.1687   -9.3763 H         1 <0>         0.0789
     74 H34        -0.2217  -16.7587   -9.9170 H         1 <0>         0.1029
     75 H35        -2.0914  -15.6115  -12.8838 H         1 <0>         0.0724
     76 H36        -1.0241  -14.6194  -11.8617 H         1 <0>         0.0613
     77 H37        -0.5472  -16.2773  -12.3003 H         1 <0>         0.0648
     78 H38        -4.3907  -19.8772   -9.2224 H         1 <0>         0.0637
     79 H39        -4.5655  -19.4691  -10.9461 H         1 <0>         0.0703
     80 H40        -3.0435  -20.1718  -10.3477 H         1 <0>         0.0637
     81 H41        -4.3688  -16.3736   -3.8609 H         1 <0>         0.1081
     82 H42        -3.3438  -17.8269   -3.9338 H         1 <0>         0.0973
     83 H43        -2.8746  -16.4581   -2.8974 H         1 <0>         0.0940
     84 H44        -0.6604  -14.6692   -7.8457 H         1 <0>         0.4334
@<TRIPOS>BOND
     1    1    2 1
     2    1   44 1
     3    1   45 1
     4    1   46 1
     5    2    7 ar
     6    2    3 ar
     7    3    4 ar
     8    3   47 1
     9    4    5 ar
    10    4   48 1
    11    5    6 ar
    12    5    8 1
    13    6    7 ar
    14    6   49 1
    15    7   50 1
    16    8   13 1
    17    8    9 1
    18    9   10 1
    19    9   51 1
    20    9   52 1
    21   10   11 1
    22   10   53 1
    23   10   54 1
    24   11   12 1
    25   11   16 am
    26   12   13 1
    27   12   55 1
    28   12   56 1
    29   13   14 1
    30   13   15 1
    31   15   57 1
    32   15   58 1
    33   15   59 1
    34   16   17 2
    35   16   18 1
    36   18   19 1
    37   18   60 1
    38   18   61 1
    39   19   20 1
    40   19   62 1
    41   19   63 1
    42   20   21 2
    43   20   22 am
    44   22   23 1
    45   22   64 1
    46   23   28 ar
    47   23   24 ar
    48   24   25 ar
    49   24   65 1
    50   25   26 ar
    51   25   66 1
    52   26   32 ar
    53   26   27 ar
    54   27   28 ar
    55   27   29 ar
    56   28   67 1
    57   29   30 ar
    58   29   43 1
    59   30   31 ar
    60   30   68 1
    61   31   32 ar
    62   31   33 1
    63   32   84 1
    64   33   40 1
    65   33   34 1
    66   34   35 1
    67   34   69 1
    68   34   70 1
    69   35   36 1
    70   35   37 1
    71   35   42 1
    72   37   38 1
    73   37   71 1
    74   37   72 1
    75   38   39 1
    76   38   40 1
    77   38   41 1
    78   40   73 1
    79   40   74 1
    80   41   75 1
    81   41   76 1
    82   41   77 1
    83   42   78 1
    84   42   79 1
    85   42   80 1
    86   43   81 1
    87   43   82 1
    88   43   83 1
@<TRIPOS>MOLECULE
ZINC63375941
   70    75     0     0     0
SMALL
USER_CHARGES

@<TRIPOS>ATOM
      1 C1         -0.0187    1.5258    0.0104 C.3       1 <0>        -0.1438
      2 C2          0.0021   -0.0041    0.0020 C.3       1 <0>        -0.0629
      3 C3          0.7421   -0.5109    1.2415 C.3       1 <0>        -0.1469
      4 C4         -1.4117   -0.5257    0.0127 C.ar      1 <0>        -0.0468
      5 C5         -2.2591   -0.2043    1.0565 C.ar      1 <0>        -0.1124
      6 C6         -3.5560   -0.6827    1.0663 C.ar      1 <0>        -0.0931
      7 C7         -4.0056   -1.4823    0.0321 C.ar      1 <0>        -0.1473
      8 C8         -3.1585   -1.8029   -1.0121 C.ar      1 <0>        -0.0797
      9 C9         -1.8629   -1.3209   -1.0241 C.ar      1 <0>        -0.1122
     10 C10        -5.4191   -2.0047    0.0433 C.3       1 <0>         0.2473
     11 H1         -5.8197   -1.9676    1.0564 H         1 <0>         0.1242
     12 C11        -6.2942   -1.1625   -0.8950 C.3       1 <0>         0.0864
     13 H2         -7.3515   -1.3252   -0.6860 H         1 <0>         0.1843
     14 C12        -5.9544   -1.5782   -2.3202 C.2       1 <0>         0.0673
     15 C13        -5.5672   -0.4741   -2.9507 C.ar      1 <0>        -0.1560
     16 C14        -5.1759   -0.2327   -4.3487 C.ar      1 <0>         0.0032
     17 C15        -4.8174    1.0413   -4.6590 C.ar      1 <0>        -0.1589
     18 C16        -4.8098    2.0860   -3.7296 C.ar      1 <0>         0.0572
     19 C17        -5.1601    1.9554   -2.4253 C.ar      1 <0>        -0.2059
     20 C18        -5.5603    0.6618   -1.9799 C.ar      1 <0>         0.3466
     21 N1         -5.9588    0.2608   -0.7976 N.pl3     1 <0>        -0.5720
     22 C19        -6.0133   -3.0098   -2.7989 C.3       1 <0>        -0.0865
     23 C20        -6.2973   -3.8744   -1.5586 C.3       1 <0>         0.0880
     24 H3         -7.3534   -3.8511   -1.2901 H         1 <0>         0.1489
     25 N2         -5.4447   -3.3861   -0.4535 N.am      1 <0>        -0.6296
     26 C21        -4.7133   -4.4276   -0.0373 C.2       1 <0>         0.7323
     27 O1         -3.9840   -4.3987    0.9344 O.2       1 <0>        -0.5073
     28 N3         -4.8787   -5.5058   -0.8159 N.am      1 <0>        -0.5242
     29 C22        -5.8156   -5.2892   -1.7969 C.2       1 <0>         0.5473
     30 O2         -6.1808   -6.0503   -2.6669 O.2       1 <0>        -0.4322
     31 C23        -4.1897   -6.7087   -0.6469 C.ar      1 <0>         0.1780
     32 C24        -4.7159   -7.7056    0.1624 C.ar      1 <0>        -0.1035
     33 C25        -4.0336   -8.8944    0.3280 C.ar      1 <0>        -0.0771
     34 C26        -2.8217   -9.1017   -0.3103 C.ar      1 <0>        -0.1034
     35 C27        -2.2840   -8.1224   -1.1174 C.ar      1 <0>        -0.0781
     36 C28        -2.9660   -6.9171   -1.2986 C.ar      1 <0>        -0.1225
     37 C29        -2.3989   -5.8667   -2.1662 C.2       1 <0>         0.5702
     38 O3         -2.9932   -4.8168   -2.3175 O.2       1 <0>        -0.5467
     39 N4         -1.2223   -6.0711   -2.7908 N.am      1 <0>        -0.7175
     40 C30        -0.6593   -5.0283   -3.6521 C.3       1 <0>         0.1534
     41 C31         0.6508   -5.5035   -4.2256 C.2       1 <0>        -0.1904
     42 C32         0.8357   -5.5059   -5.5224 C.2       1 <0>        -0.1518
     43 H4          1.0039    1.9031    0.0027 H         1 <0>         0.0646
     44 H5         -0.5459    1.8868   -0.8726 H         1 <0>         0.0536
     45 H6         -0.5289    1.8773    0.9072 H         1 <0>         0.0575
     46 H7          0.5123   -0.3556   -0.8948 H         1 <0>         0.0797
     47 H8          0.2319   -0.1594    2.1383 H         1 <0>         0.0582
     48 H9          0.7568   -1.6008    1.2356 H         1 <0>         0.0569
     49 H10         1.7647   -0.1336    1.2338 H         1 <0>         0.0645
     50 H11        -1.9079    0.4204    1.8645 H         1 <0>         0.1294
     51 H12        -4.2179   -0.4322    1.8822 H         1 <0>         0.1251
     52 H13        -3.5096   -2.4278   -1.8199 H         1 <0>         0.1265
     53 H14        -1.2022   -1.5684   -1.8418 H         1 <0>         0.1228
     54 H15        -5.1733   -1.0223   -5.0856 H         1 <0>         0.1696
     55 H16        -4.5230    1.2576   -5.6753 H         1 <0>         0.1550
     56 H17        -4.5039    3.0631   -4.0732 H         1 <0>         0.1575
     57 H18        -5.1368    2.7986   -1.7509 H         1 <0>         0.1686
     58 H19        -6.8153   -3.1272   -3.5277 H         1 <0>         0.1498
     59 H20        -5.0593   -3.2948   -3.2425 H         1 <0>         0.1389
     60 H21        -5.6601   -7.5513    0.6636 H         1 <0>         0.1367
     61 H22        -4.4470   -9.6672    0.9591 H         1 <0>         0.1437
     62 H23        -2.2955  -10.0350   -0.1746 H         1 <0>         0.1429
     63 H24        -1.3386   -8.2884   -1.6123 H         1 <0>         0.1366
     64 H25        -0.7482   -6.9087   -2.6701 H         1 <0>         0.4044
     65 H26        -1.3544   -4.8130   -4.4637 H         1 <0>         0.0725
     66 H27        -0.4930   -4.1241   -3.0666 H         1 <0>         0.0743
     67 H28         1.4372   -5.8422   -3.5673 H         1 <0>         0.1181
     68 H29         1.7746   -5.8465   -5.9334 H         1 <0>         0.1083
     69 H30         0.0493   -5.1673   -6.1807 H         1 <0>         0.1006
     70 H31        -6.0201    0.8041    0.0036 H         1 <0>         0.4576
@<TRIPOS>BOND
     1    1    2 1
     2    1   43 1
     3    1   44 1
     4    1   45 1
     5    2    3 1
     6    2    4 1
     7    2   46 1
     8    3   47 1
     9    3   48 1
    10    3   49 1
    11    4    9 ar
    12    4    5 ar
    13    5    6 ar
    14    5   50 1
    15    6    7 ar
    16    6   51 1
    17    7    8 ar
    18    7   10 1
    19    8    9 ar
    20    8   52 1
    21    9   53 1
    22   10   11 1
    23   10   25 1
    24   10   12 1
    25   12   13 1
    26   12   21 1
    27   12   14 1
    28   14   15 2
    29   14   22 1
    30   15   20 ar
    31   15   16 ar
    32   16   17 ar
    33   16   54 1
    34   17   18 ar
    35   17   55 1
    36   18   19 ar
    37   18   56 1
    38   19   20 ar
    39   19   57 1
    40   20   21 2
    41   21   70 1
    42   22   23 1
    43   22   58 1
    44   22   59 1
    45   23   24 1
    46   23   29 1
    47   23   25 1
    48   25   26 am
    49   26   27 2
    50   26   28 am
    51   28   29 am
    52   28   31 1
    53   29   30 2
    54   31   36 ar
    55   31   32 ar
    56   32   33 ar
    57   32   60 1
    58   33   34 ar
    59   33   61 1
    60   34   35 ar
    61   34   62 1
    62   35   36 ar
    63   35   63 1
    64   36   37 1
    65   37   38 2
    66   37   39 am
    67   39   40 1
    68   39   64 1
    69   40   41 1
    70   40   65 1
    71   40   66 1
    72   41   42 2
    73   41   67 1
    74   42   68 1
    75   42   69 1
@<TRIPOS>MOLECULE
ZINC09665551
   49    51     0     0     0
SMALL
USER_CHARGES
1-[(2,4-dichlorophenyl)carbamoyl]ethyl 3-(2-furylcarbonylamino)-4-methyl-benzoate
@<TRIPOS>ATOM
      1 C1          0.1871    1.6550   -0.1973 C.3       1 <0>        -0.1242
      2 C2          0.1643    0.1490   -0.2481 C.ar      1 <0>        -0.0735
      3 C3          0.1901   -0.5803    0.9262 C.ar      1 <0>        -0.1111
      4 C4          0.1690   -1.9593    0.8880 C.ar      1 <0>        -0.0692
      5 C5          0.1215   -2.6233   -0.3399 C.ar      1 <0>        -0.1116
      6 C6          0.0955   -1.8873   -1.5247 C.ar      1 <0>        -0.0620
      7 C7          0.1117   -0.5017   -1.4750 C.ar      1 <0>         0.1336
      8 N1          0.0799    0.2409   -2.6597 N.am      1 <0>        -0.6593
      9 C8         -0.4539   -0.2934   -3.7759 C.2       1 <0>         0.6049
     10 O1         -0.9988   -1.3807   -3.7296 O.2       1 <0>        -0.4912
     11 C9         -0.3781    0.4351   -5.0461 C.2       1 <0>        -0.0916
     12 C10        -0.8750    0.0110   -6.2453 C.2       1 <0>        -0.1047
     13 C11        -0.5807    1.0144   -7.1816 C.2       1 <0>        -0.2250
     14 C12         0.0746    1.9947   -6.5213 C.2       1 <0>         0.0045
     15 O2          0.1896    1.6446   -5.2337 O.3       1 <0>        -0.1661
     16 C13         0.0994   -4.0999   -0.3838 C.2       1 <0>         0.5140
     17 O3          0.0581   -4.6751   -1.4528 O.2       1 <0>        -0.4945
     18 O4          0.1250   -4.8083    0.7617 O.3       1 <0>        -0.3227
     19 C14         0.1010   -6.2552    0.6427 C.3       1 <0>         0.0742
     20 H1         -0.4451   -6.5366   -0.2577 H         1 <0>         0.1203
     21 C15         1.5342   -6.7837    0.5560 C.3       1 <0>        -0.1698
     22 C16        -0.5807   -6.8472    1.8493 C.2       1 <0>         0.5234
     23 O5         -1.0045   -6.1211    2.7235 O.2       1 <0>        -0.4891
     24 N2         -0.7193   -8.1835    1.9569 N.am      1 <0>        -0.6662
     25 C17        -1.4393   -8.7287    3.0270 C.ar      1 <0>         0.1613
     26 C18        -1.3964   -8.1221    4.2751 C.ar      1 <0>        -0.0967
     27 C19        -2.1078   -8.6615    5.3289 C.ar      1 <0>        -0.0838
     28 C20        -2.8637   -9.8056    5.1421 C.ar      1 <0>        -0.0379
     29 C21        -2.9089  -10.4128    3.8996 C.ar      1 <0>        -0.0827
     30 C22        -2.2027   -9.8746    2.8403 C.ar      1 <0>        -0.0526
     31 Cl1        -2.2648  -10.6328    1.2798 Cl        1 <0>        -0.0485
     32 Cl2        -3.7565  -10.4804    6.4692 Cl        1 <0>        -0.0530
     33 H2          1.2196    2.0036   -0.2166 H         1 <0>         0.0805
     34 H3         -0.3479    2.0557   -1.0583 H         1 <0>         0.0673
     35 H4         -0.2941    1.9949    0.7198 H         1 <0>         0.0805
     36 H5          0.2265   -0.0688    1.8767 H         1 <0>         0.1400
     37 H6          0.1897   -2.5254    1.8076 H         1 <0>         0.1441
     38 H7          0.0584   -2.3949   -2.4772 H         1 <0>         0.1624
     39 H8          0.4421    1.1406   -2.6779 H         1 <0>         0.4188
     40 H9         -1.3938   -0.9168   -6.4363 H         1 <0>         0.1638
     41 H10        -0.8309    1.0049   -8.2322 H         1 <0>         0.1610
     42 H11         0.4410    2.9115   -6.9590 H         1 <0>         0.2146
     43 H12         2.0803   -6.5022    1.4564 H         1 <0>         0.0785
     44 H13         1.5161   -7.8698    0.4667 H         1 <0>         0.0829
     45 H14         2.0272   -6.3554   -0.3167 H         1 <0>         0.0829
     46 H15        -0.3204   -8.7675    1.2931 H         1 <0>         0.4169
     47 H16        -0.8073   -7.2288    4.4218 H         1 <0>         0.1599
     48 H17        -2.0744   -8.1897    6.2998 H         1 <0>         0.1466
     49 H18        -3.4996  -11.3055    3.7565 H         1 <0>         0.1503
@<TRIPOS>BOND
     1    1    2 1
     2    1   33 1
     3    1   34 1
     4    1   35 1
     5    2    7 ar
     6    2    3 ar
     7    3    4 ar
     8    3   36 1
     9    4    5 ar
    10    4   37 1
    11    5    6 ar
    12    5   16 1
    13    6    7 ar
    14    6   38 1
    15    7    8 1
    16    8    9 am
    17    8   39 1
    18    9   10 2
    19    9   11 1
    20   11   15 1
    21   11   12 2
    22   12   13 1
    23   12   40 1
    24   13   14 2
    25   13   41 1
    26   14   15 1
    27   14   42 1
    28   16   17 2
    29   16   18 1
    30   18   19 1
    31   19   20 1
    32   19   21 1
    33   19   22 1
    34   21   43 1
    35   21   44 1
    36   21   45 1
    37   22   23 2
    38   22   24 am
    39   24   25 1
    40   24   46 1
    41   25   30 ar
    42   25   26 ar
    43   26   27 ar
    44   26   47 1
    45   27   28 ar
    46   27   48 1
    47   28   29 ar
    48   28   32 1
    49   29   30 ar
    50   29   49 1
    51   30   31 1
@<TRIPOS>MOLECULE
ZINC09968466
   52    54     0     0     0
SMALL
USER_CHARGES
(2S)-2-[[5-(4-bromophenyl)-4-(3,5-dimethylphenyl)-1,2,4-triazol-3-yl]sulfanyl]-N-(methylcarbamoyl)propanamide
@<TRIPOS>ATOM
      1 C1          3.2232    1.5972    8.2864 C.3       1 <0>        -0.1180
      2 C2          3.0895    0.9065    6.9537 C.ar      1 <0>        -0.0640
      3 C3          3.0736   -0.4747    6.8901 C.ar      1 <0>        -0.1006
      4 C4          2.9506   -1.1120    5.6691 C.ar      1 <0>        -0.0614
      5 C5          2.8427   -0.3701    4.5090 C.ar      1 <0>        -0.1068
      6 C6          2.8583    1.0168    4.5697 C.ar      1 <0>         0.1035
      7 C7          2.9881    1.6537    5.7965 C.ar      1 <0>        -0.1051
      8 N1          2.7489    1.7725    3.3942 N.pl3     1 <0>        -0.4094
      9 C8          3.7020    2.6027    2.8456 C.2       1 <0>         0.2327
     10 N2          3.1840    3.1140    1.7530 N.2       1 <0>        -0.2573
     11 N3          1.9928    2.6648    1.5788 N.2       1 <0>        -0.2832
     12 C9          1.6745    1.8378    2.5496 C.2       1 <0>         0.1573
     13 S1          0.1466    0.9796    2.7332 S.3       1 <0>         0.0979
     14 C10        -0.7288    1.5792    1.2668 C.3       1 <0>        -0.1161
     15 H1         -0.7436    2.6691    1.2728 H         1 <0>         0.1323
     16 C11        -0.0127    1.0858    0.0080 C.3       1 <0>        -0.1476
     17 C12        -2.1427    1.0576    1.2775 C.2       1 <0>         0.5430
     18 O1         -2.4266    0.0896    1.9499 O.2       1 <0>        -0.4473
     19 N4         -3.0915    1.6672    0.5395 N.am      1 <0>        -0.6840
     20 C13        -4.3559    1.2007    0.5491 C.2       1 <0>         0.6929
     21 O2         -4.6405    0.2303    1.2232 O.2       1 <0>        -0.5247
     22 N5         -5.3047    1.8103   -0.1889 N.am      1 <0>        -0.7395
     23 C14        -6.6791    1.3033   -0.1785 C.3       1 <0>         0.1018
     24 C15         5.0505    2.8713    3.3879 C.ar      1 <0>        -0.0059
     25 C16         5.5876    2.0414    4.3735 C.ar      1 <0>        -0.0981
     26 C17         6.8489    2.2939    4.8715 C.ar      1 <0>        -0.0865
     27 C18         7.5772    3.3746    4.4040 C.ar      1 <0>        -0.0761
     28 C19         7.0476    4.2048    3.4308 C.ar      1 <0>        -0.0887
     29 C20         5.7898    3.9594    2.9207 C.ar      1 <0>        -0.0669
     30 Br1         9.3022    3.7187    5.0983 Br        1 <0>        -0.0401
     31 C21         2.9337   -2.6175    5.6041 C.3       1 <0>        -0.1193
     32 H2          4.2783    1.7565    8.5088 H         1 <0>         0.0779
     33 H3          2.7103    2.5583    8.2507 H         1 <0>         0.0706
     34 H4          2.7778    0.9763    9.0637 H         1 <0>         0.0744
     35 H5          3.1578   -1.0569    7.7958 H         1 <0>         0.1355
     36 H6          2.7466   -0.8684    3.5557 H         1 <0>         0.1341
     37 H7          3.0051    2.7324    5.8463 H         1 <0>         0.1310
     38 H8          0.0021   -0.0041    0.0020 H         1 <0>         0.0742
     39 H9          1.0099    1.4631    0.0003 H         1 <0>         0.0947
     40 H10        -0.5399    1.4469   -0.8751 H         1 <0>         0.0758
     41 H11        -2.8643    2.4417    0.0015 H         1 <0>         0.4134
     42 H12        -5.0775    2.5848   -0.7269 H         1 <0>         0.4017
     43 H13        -7.2987    1.9196   -0.8298 H         1 <0>         0.0822
     44 H14        -6.6891    0.2734   -0.5354 H         1 <0>         0.0634
     45 H15        -7.0720    1.3395    0.8376 H         1 <0>         0.0633
     46 H16         5.0186    1.2007    4.7421 H         1 <0>         0.1375
     47 H17         7.2673    1.6502    5.6310 H         1 <0>         0.1396
     48 H18         7.6204    5.0465    3.0704 H         1 <0>         0.1434
     49 H19         5.3776    4.6078    2.1618 H         1 <0>         0.1473
     50 H20         3.9524   -2.9876    5.4887 H         1 <0>         0.0775
     51 H21         2.5042   -3.0161    6.5232 H         1 <0>         0.0746
     52 H22         2.3322   -2.9377    4.7533 H         1 <0>         0.0731
@<TRIPOS>BOND
     1    1    2 1
     2    1   32 1
     3    1   33 1
     4    1   34 1
     5    2    7 ar
     6    2    3 ar
     7    3    4 ar
     8    3   35 1
     9    4    5 ar
    10    4   31 1
    11    5    6 ar
    12    5   36 1
    13    6    7 ar
    14    6    8 1
    15    7   37 1
    16    8   12 1
    17    8    9 1
    18    9   10 2
    19    9   24 1
    20   10   11 1
    21   11   12 2
    22   12   13 1
    23   13   14 1
    24   14   15 1
    25   14   16 1
    26   14   17 1
    27   16   38 1
    28   16   39 1
    29   16   40 1
    30   17   18 2
    31   17   19 am
    32   19   20 am
    33   19   41 1
    34   20   21 2
    35   20   22 am
    36   22   23 1
    37   22   42 1
    38   23   43 1
    39   23   44 1
    40   23   45 1
    41   24   29 ar
    42   24   25 ar
    43   25   26 ar
    44   25   46 1
    45   26   27 ar
    46   26   47 1
    47   27   28 ar
    48   27   30 1
    49   28   29 ar
    50   28   48 1
    51   29   49 1
    52   31   50 1
    53   31   51 1
    54   31   52 1
@<TRIPOS>MOLECULE
ZINC21722955
   64    68     0     0     0
SMALL
USER_CHARGES
(6R,9R)-9-(2-furyl)-6-(4-methoxyphenyl)-7-oxo-N-propyl-8,9,10,11-tetrahydro-6H-benzo[b][1,4]benzodiazepine-5-carboxamide
@<TRIPOS>ATOM
      1 C1          6.7154   10.5520    4.6551 C.3       1 <0>        -0.1516
      2 C2          5.3151    9.9916    4.3982 C.3       1 <0>        -0.1340
      3 C3          5.2080    9.5343    2.9421 C.3       1 <0>         0.1372
      4 N1          3.8672    8.9977    2.6961 N.am      1 <0>        -0.7520
      5 C4          3.5414    8.5321    1.4740 C.2       1 <0>         0.7118
      6 O1          4.3604    8.5574    0.5756 O.2       1 <0>        -0.5775
      7 N2          2.3079    8.0384    1.2477 N.am      1 <0>        -0.5666
      8 C5          1.3766    8.0150    2.2876 C.ar      1 <0>         0.1224
      9 C6          0.8478    9.1838    2.8105 C.ar      1 <0>        -0.1138
     10 C7         -0.1520    9.1105    3.7647 C.ar      1 <0>        -0.1063
     11 C8         -0.6202    7.8823    4.1952 C.ar      1 <0>        -0.1053
     12 C9         -0.0791    6.7127    3.6899 C.ar      1 <0>        -0.1137
     13 C10         0.9329    6.7848    2.7480 C.ar      1 <0>         0.1483
     14 N3          1.5508    5.6517    2.2333 N.pl3     1 <0>        -0.7028
     15 C11         1.4869    5.2568    0.9362 C.2       1 <0>         0.2531
     16 C12         1.6755    6.0609   -0.1227 C.2       1 <0>        -0.2841
     17 C13         1.9705    7.5414   -0.0701 C.3       1 <0>         0.2647
     18 H1          2.8767    7.7251   -0.6659 H         1 <0>         0.1256
     19 C14         0.7593    8.2880   -0.5668 C.ar      1 <0>        -0.1213
     20 C15        -0.4356    8.2019    0.1237 C.ar      1 <0>        -0.0635
     21 C16        -1.5458    8.8899   -0.3264 C.ar      1 <0>        -0.2114
     22 C17        -1.4642    9.6585   -1.4784 C.ar      1 <0>         0.1308
     23 C18        -0.2656    9.7387   -2.1725 C.ar      1 <0>        -0.1544
     24 C19         0.8432    9.0534   -1.7152 C.ar      1 <0>        -0.0410
     25 O2         -2.5563   10.3322   -1.9260 O.3       1 <0>        -0.3174
     26 C20        -3.7564   10.2035   -1.1611 C.3       1 <0>         0.0248
     27 C21         1.6065    5.5386   -1.4361 C.2       1 <0>         0.4008
     28 O3          1.7579    6.2943   -2.3759 O.2       1 <0>        -0.4592
     29 C22         1.3537    4.0864   -1.7098 C.3       1 <0>        -0.1620
     30 C23         1.8699    3.2678   -0.5206 C.3       1 <0>         0.0060
     31 H2          2.9622    3.3554   -0.4245 H         1 <0>         0.1126
     32 C24         1.1717    3.7832    0.7367 C.3       1 <0>        -0.1012
     33 C25         1.5448    1.8104   -0.7242 C.2       1 <0>        -0.0135
     34 C26         2.4385    0.8077   -0.7963 C.2       1 <0>        -0.2000
     35 C27         1.7026   -0.3836   -0.9913 C.2       1 <0>        -0.2134
     36 C28         0.4032   -0.0377   -1.0267 C.2       1 <0>        -0.0374
     37 O4          0.3136    1.2925   -0.8644 O.3       1 <0>        -0.1739
     38 H3          6.7924   10.8808    5.7020 H         1 <0>         0.0610
     39 H4          6.8960   11.4076    3.9878 H         1 <0>         0.0591
     40 H5          7.4645    9.7705    4.4602 H         1 <0>         0.0585
     41 H6          5.1345    9.1360    5.0655 H         1 <0>         0.0675
     42 H7          4.5659   10.7731    4.5931 H         1 <0>         0.0685
     43 H8          5.3886   10.3900    2.2748 H         1 <0>         0.0660
     44 H9          5.9572    8.7528    2.7471 H         1 <0>         0.0649
     45 H10         3.1263    8.9748    3.5088 H         1 <0>         0.4146
     46 H11         1.2129   10.1439    2.4767 H         1 <0>         0.1307
     47 H12        -0.5688   10.0179    4.1761 H         1 <0>         0.1312
     48 H13        -1.4118    7.8356    4.9285 H         1 <0>         0.1318
     49 H14        -0.4426    5.7533    4.0274 H         1 <0>         0.1335
     50 H15         2.1441    5.0012    2.8928 H         1 <0>         0.4305
     51 H16        -0.4998    7.5999    1.0180 H         1 <0>         0.1178
     52 H17        -2.4777    8.8259    0.2157 H         1 <0>         0.1246
     53 H18        -0.1996   10.3361   -3.0698 H         1 <0>         0.1307
     54 H19         1.7766    9.1157   -2.2550 H         1 <0>         0.1311
     55 H20        -4.5559   10.7951   -1.6310 H         1 <0>         0.1014
     56 H21        -3.5810   10.5706   -0.1391 H         1 <0>         0.0552
     57 H22        -4.0561    9.1458   -1.1244 H         1 <0>         0.0551
     58 H23         0.2740    3.9201   -1.8386 H         1 <0>         0.1063
     59 H24         1.8825    3.7887   -2.6273 H         1 <0>         0.1036
     60 H25         1.5245    3.2116    1.6078 H         1 <0>         0.0917
     61 H26         0.0850    3.6521    0.6278 H         1 <0>         0.1024
     62 H27         3.5122    0.8958   -0.7202 H         1 <0>         0.1488
     63 H28         2.1062   -1.3803   -1.0920 H         1 <0>         0.1492
     64 H29        -0.4272   -0.7148   -1.1623 H         1 <0>         0.2033
@<TRIPOS>BOND
     1    1    2 1
     2    1   38 1
     3    1   39 1
     4    1   40 1
     5    2    3 1
     6    2   41 1
     7    2   42 1
     8    3    4 1
     9    3   43 1
    10    3   44 1
    11    4    5 am
    12    4   45 1
    13    5    6 2
    14    5    7 am
    15    7   17 1
    16    7    8 1
    17    8   13 ar
    18    8    9 ar
    19    9   10 ar
    20    9   46 1
    21   10   11 ar
    22   10   47 1
    23   11   12 ar
    24   11   48 1
    25   12   13 ar
    26   12   49 1
    27   13   14 1
    28   14   15 1
    29   14   50 1
    30   15   32 1
    31   15   16 2
    32   16   17 1
    33   16   27 1
    34   17   18 1
    35   17   19 1
    36   19   24 ar
    37   19   20 ar
    38   20   21 ar
    39   20   51 1
    40   21   22 ar
    41   21   52 1
    42   22   23 ar
    43   22   25 1
    44   23   24 ar
    45   23   53 1
    46   24   54 1
    47   25   26 1
    48   26   55 1
    49   26   56 1
    50   26   57 1
    51   27   28 2
    52   27   29 1
    53   29   30 1
    54   29   58 1
    55   29   59 1
    56   30   31 1
    57   30   32 1
    58   30   33 1
    59   32   60 1
    60   32   61 1
    61   33   37 1
    62   33   34 2
    63   34   35 1
    64   34   62 1
    65   35   36 2
    66   35   63 1
    67   36   37 1
    68   36   64 1
@<TRIPOS>MOLECULE
ZINC40815011
   54    57     0     0     0
SMALL
USER_CHARGES

@<TRIPOS>ATOM
      1 C1         -1.2640    1.1892   -0.1465 C.3       1 <0>        -0.1219
      2 C2         -0.5834   -0.1534   -0.0727 C.ar      1 <0>        -0.1063
      3 C3          0.0167   -0.6918   -1.2037 C.ar      1 <0>         0.1590
      4 C4          0.6429   -1.9294   -1.1317 C.ar      1 <0>        -0.1223
      5 C5          0.6674   -2.6214    0.0636 C.ar      1 <0>        -0.0897
      6 C6          0.0694   -2.0837    1.1881 C.ar      1 <0>        -0.1222
      7 C7         -0.5507   -0.8478    1.1217 C.ar      1 <0>        -0.0172
      8 Cl1        -1.2935   -0.1729    2.5381 Cl        1 <0>        -0.0613
      9 N1         -0.0099    0.0105   -2.4125 N.am      1 <0>        -0.6597
     10 C8          0.0954   -0.6539   -3.5804 C.2       1 <0>         0.6111
     11 O1          0.1124   -1.8708   -3.5888 O.2       1 <0>        -0.4901
     12 C9          0.1894    0.0896   -4.8413 C.2       1 <0>        -0.1077
     13 C10         0.2942   -0.4623   -6.0882 C.2       1 <0>        -0.0206
     14 C11         0.3558    0.6093   -6.9867 C.2       1 <0>        -0.1586
     15 C12         0.2879    1.7687   -6.2521 C.2       1 <0>         0.0745
     16 O2          0.1812    1.4361   -4.9669 O.3       1 <0>        -0.1464
     17 C13         0.3310    3.1399   -6.8774 C.3       1 <0>        -0.0463
     18 C14         0.9576    3.0441   -8.2710 C.3       1 <0>        -0.1115
     19 C15         0.2425    1.9826   -9.1135 C.3       1 <0>        -0.1189
     20 C16         0.4702    0.6257   -8.4632 C.2       1 <0>         0.1832
     21 N2          0.7448   -0.4382   -9.1516 N.2       1 <0>        -0.2171
     22 N3          0.8408   -0.3641  -10.5473 N.pl3     1 <0>        -0.9655
     23 S1          1.1916   -1.7229  -11.4265 S.o2      1 <0>         2.7135
     24 O3          1.0770   -1.3614  -12.7959 O.2       1 <0>        -0.9475
     25 O4          2.3860   -2.2639  -10.8787 O.2       1 <0>        -0.9372
     26 C17        -0.0850   -2.8945  -11.1063 C.ar      1 <0>        -0.6705
     27 C18         0.0409   -3.7841  -10.0558 C.ar      1 <0>        -0.0078
     28 C19        -0.9606   -4.7032   -9.8046 C.ar      1 <0>        -0.1399
     29 C20        -2.0882   -4.7324  -10.6038 C.ar      1 <0>        -0.0598
     30 C21        -2.2145   -3.8422  -11.6538 C.ar      1 <0>        -0.1418
     31 C22        -1.2149   -2.9203  -11.9023 C.ar      1 <0>        -0.0222
     32 C23         0.3355   -1.9301   -6.4270 C.3       1 <0>        -0.1044
     33 H1         -0.5432    1.9748    0.0801 H         1 <0>         0.0782
     34 H2         -1.6624    1.3400   -1.1498 H         1 <0>         0.0670
     35 H3         -2.0786    1.2238    0.5769 H         1 <0>         0.0810
     36 H4          1.1100   -2.3506   -2.0096 H         1 <0>         0.1528
     37 H5          1.1540   -3.5839    0.1196 H         1 <0>         0.1379
     38 H6          0.0901   -2.6268    2.1213 H         1 <0>         0.1358
     39 H7         -0.1041    0.9759   -2.4106 H         1 <0>         0.4170
     40 H8         -0.6821    3.5334   -6.9607 H         1 <0>         0.1046
     41 H9          0.9294    3.8048   -6.2547 H         1 <0>         0.1016
     42 H10         0.8776    4.0109   -8.7680 H         1 <0>         0.0955
     43 H11         2.0099    2.7768   -8.1741 H         1 <0>         0.0785
     44 H12        -0.8253    2.1989   -9.1483 H         1 <0>         0.1008
     45 H13         0.6506    1.9791  -10.1242 H         1 <0>         0.0851
     46 H14         0.7018    0.4831  -10.9987 H         1 <0>         0.4016
     47 H15         0.9218   -3.7613   -9.4315 H         1 <0>         0.1427
     48 H16        -0.8620   -5.3987   -8.9843 H         1 <0>         0.1353
     49 H17        -2.8703   -5.4510  -10.4080 H         1 <0>         0.1321
     50 H18        -3.0953   -3.8653  -12.2783 H         1 <0>         0.1335
     51 H19        -1.3152   -2.2223  -12.7203 H         1 <0>         0.1388
     52 H20        -0.6788   -2.2939   -6.5908 H         1 <0>         0.0791
     53 H21         0.9250   -2.0776   -7.3320 H         1 <0>         0.0843
     54 H22         0.7904   -2.4804   -5.6034 H         1 <0>         0.0897
@<TRIPOS>BOND
     1    1    2 1
     2    1   33 1
     3    1   34 1
     4    1   35 1
     5    2    7 ar
     6    2    3 ar
     7    3    4 ar
     8    3    9 1
     9    4    5 ar
    10    4   36 1
    11    5    6 ar
    12    5   37 1
    13    6    7 ar
    14    6   38 1
    15    7    8 1
    16    9   10 am
    17    9   39 1
    18   10   11 2
    19   10   12 1
    20   12   16 1
    21   12   13 2
    22   13   14 1
    23   13   32 1
    24   14   20 1
    25   14   15 2
    26   15   16 1
    27   15   17 1
    28   17   18 1
    29   17   40 1
    30   17   41 1
    31   18   19 1
    32   18   42 1
    33   18   43 1
    34   19   20 1
    35   19   44 1
    36   19   45 1
    37   20   21 2
    38   21   22 1
    39   22   23 1
    40   22   46 1
    41   23   24 2
    42   23   25 2
    43   23   26 1
    44   26   31 ar
    45   26   27 ar
    46   27   28 ar
    47   27   47 1
    48   28   29 ar
    49   28   48 1
    50   29   30 ar
    51   29   49 1
    52   30   31 ar
    53   30   50 1
    54   31   51 1
    55   32   52 1
    56   32   53 1
    57   32   54 1
@<TRIPOS>MOLECULE
ZINC59294590
   49    53     0     0     0
SMALL
USER_CHARGES

@<TRIPOS>ATOM
      1 C1         -0.5663    1.4233    0.0341 C.3       1 <0>        -0.1195
      2 C2         -0.2482   -0.0497    0.0178 C.ar      1 <0>        -0.0723
      3 C3         -0.2336   -0.7383   -1.1808 C.ar      1 <0>        -0.1188
      4 C4          0.0569   -2.0873   -1.2030 C.ar      1 <0>        -0.0827
      5 C5          0.3376   -2.7604   -0.0137 C.ar      1 <0>        -0.0459
      6 C6          0.3234   -2.0668    1.1945 C.ar      1 <0>        -0.0297
      7 C7          0.0352   -0.7104    1.2069 C.ar      1 <0>         0.1146
      8 N1          0.0250   -0.0084    2.4169 N.pl3     1 <0>        -0.6209
      9 C8         -0.6316   -0.5103    3.4816 C.2       1 <0>         0.4934
     10 S1         -1.3597   -2.0568    3.3872 S.2       1 <0>        -0.4433
     11 N2         -0.7150    0.2054    4.6206 N.am      1 <0>        -0.6385
     12 C9         -1.3715   -0.2964    5.6853 C.2       1 <0>         0.5368
     13 O1         -1.8885   -1.3945    5.6183 O.2       1 <0>        -0.3935
     14 C10        -1.4628    0.4873    6.9326 C.ar      1 <0>        -0.1165
     15 C11        -0.8650    1.7607    6.9969 C.ar      1 <0>        -0.0807
     16 C12        -0.9254    2.5088    8.1183 C.ar      1 <0>        -0.0603
     17 C13        -1.6010    2.0251    9.2736 C.ar      1 <0>         0.0792
     18 C14        -2.2251    0.7072    9.2197 C.ar      1 <0>         0.0542
     19 C15        -2.1370   -0.0359    8.0156 C.ar      1 <0>         0.0220
     20 N3         -2.8266    0.3646   10.3614 N.2       1 <0>        -0.4871
     21 S2         -2.5995    1.6051   11.3601 S.3       1 <0>         0.6690
     22 N4         -1.7538    2.6287   10.4521 N.2       1 <0>        -0.5053
     23 C16         0.6492   -4.2088   -0.0353 C.2       1 <0>        -0.1511
     24 C17         1.7811   -4.6877   -0.6507 C.2       1 <0>        -0.0120
     25 C18         2.0042   -6.1353   -0.6204 C.ar      1 <0>        -0.1480
     26 C19         3.2426   -6.6793   -0.9805 C.ar      1 <0>        -0.0589
     27 C20         3.4252   -8.0328   -0.9403 C.ar      1 <0>        -0.1402
     28 C21         2.3934   -8.8725   -0.5455 C.ar      1 <0>        -0.0693
     29 C22         1.1645   -8.3569   -0.1875 C.ar      1 <0>        -0.1315
     30 C23         0.9560   -6.9855   -0.2221 C.ar      1 <0>         0.1350
     31 O2         -0.2437   -6.4574    0.1194 O.3       1 <0>        -0.2803
     32 C24        -0.2382   -5.1934    0.6073 C.2       1 <0>         0.5069
     33 O3         -0.9469   -4.8786    1.5453 O.2       1 <0>        -0.4001
     34 H1          0.3547    1.9952   -0.0793 H         1 <0>         0.0752
     35 H2         -1.2432    1.6579   -0.7874 H         1 <0>         0.0765
     36 H3         -1.0405    1.6821    0.9808 H         1 <0>         0.0618
     37 H4         -0.4505   -0.2191   -2.1026 H         1 <0>         0.1332
     38 H5          0.0667   -2.6221   -2.1413 H         1 <0>         0.1291
     39 H6          0.5399   -2.5830    2.1181 H         1 <0>         0.1468
     40 H7          0.4904    0.8395    2.4897 H         1 <0>         0.4061
     41 H8         -0.3024    1.0817    4.6741 H         1 <0>         0.4081
     42 H9         -0.3474    2.1463    6.1310 H         1 <0>         0.1372
     43 H10        -0.4571    3.4817    8.1393 H         1 <0>         0.1505
     44 H11        -2.5937   -1.0123    7.9481 H         1 <0>         0.1627
     45 H12         2.4787   -4.0226   -1.1380 H         1 <0>         0.1541
     46 H13         4.0502   -6.0320   -1.2891 H         1 <0>         0.1378
     47 H14         4.3805   -8.4527   -1.2184 H         1 <0>         0.1342
     48 H15         2.5536   -9.9402   -0.5185 H         1 <0>         0.1388
     49 H16         0.3676   -9.0186    0.1183 H         1 <0>         0.1430
@<TRIPOS>BOND
     1    1    2 1
     2    1   34 1
     3    1   35 1
     4    1   36 1
     5    2    7 ar
     6    2    3 ar
     7    3    4 ar
     8    3   37 1
     9    4    5 ar
    10    4   38 1
    11    5    6 ar
    12    5   23 1
    13    6    7 ar
    14    6   39 1
    15    7    8 1
    16    8    9 1
    17    8   40 1
    18    9   10 2
    19    9   11 1
    20   11   12 am
    21   11   41 1
    22   12   13 2
    23   12   14 1
    24   14   19 ar
    25   14   15 ar
    26   15   16 ar
    27   15   42 1
    28   16   17 ar
    29   16   43 1
    30   17   22 2
    31   17   18 ar
    32   18   19 ar
    33   18   20 2
    34   19   44 1
    35   20   21 1
    36   21   22 1
    37   23   32 1
    38   23   24 2
    39   24   25 1
    40   24   45 1
    41   25   30 ar
    42   25   26 ar
    43   26   27 ar
    44   26   46 1
    45   27   28 ar
    46   27   47 1
    47   28   29 ar
    48   28   48 1
    49   29   30 ar
    50   29   49 1
    51   30   31 1
    52   31   32 1
    53   32   33 2
@<TRIPOS>MOLECULE
ZINC06077775
   75    80     0     0     0
SMALL
USER_CHARGES
[[4-(2,3-dimethylphenyl)piperazin-1-yl]-[1-(1,1-dimethylpropyl)tetrazol-5-yl]-methyl]BLAHone
@<TRIPOS>ATOM
      1 C1          1.5208   -1.9289    0.8070 C.3       1 <0>        -0.1580
      2 C2          1.4754   -0.4260    0.5236 C.3       1 <0>        -0.1220
      3 C3          0.0192    0.0418    0.4846 C.3       1 <0>         0.1536
      4 C4         -0.6444   -0.2431    1.8334 C.3       1 <0>        -0.1732
      5 C5         -0.7280   -0.7082   -0.6200 C.3       1 <0>        -0.1754
      6 N1         -0.0242    1.4808    0.2132 N.pl3     1 <0>        -0.2715
      7 C6         -1.1303    2.2329    0.0626 C.2       1 <0>         0.1119
      8 N2         -0.7240    3.4587   -0.1622 N.2       1 <0>        -0.2427
      9 N3          0.5644    3.4578   -0.1584 N.2       1 <0>        -0.0594
     10 N4          0.9905    2.2643    0.0682 N.2       1 <0>        -0.0532
     11 C7         -2.5585    1.7585    0.1408 C.3       1 <0>         0.2086
     12 H1         -2.5801    0.7277    0.4943 H         1 <0>         0.1643
     13 C8         -3.1884    1.8340   -1.2262 C.2       1 <0>        -0.2812
     14 C9         -3.5724    0.6954   -1.8575 C.2       1 <0>         0.0763
     15 C10        -4.1855    0.8022   -3.1808 C.ar      1 <0>        -0.1496
     16 C11        -4.6069   -0.3385   -3.8758 C.ar      1 <0>        -0.0310
     17 C12        -5.1745   -0.2070   -5.1237 C.ar      1 <0>         0.0147
     18 C13        -5.3315    1.0611   -5.6976 C.ar      1 <0>         0.1296
     19 C14        -4.9192    2.1926   -5.0181 C.ar      1 <0>        -0.1598
     20 C15        -4.3451    2.0768   -3.7584 C.ar      1 <0>         0.2246
     21 N5         -3.9285    3.1954   -3.0653 N.am      1 <0>        -0.6145
     22 H2         -4.0427    4.1002   -3.4757 H         1 <0>         0.4373
     23 C16        -3.3715    3.0863   -1.8466 C.2       1 <0>         0.5458
     24 O1         -3.0152    4.0960   -1.2636 O.2       1 <0>        -0.5161
     25 O2         -5.9125    0.9119   -6.9230 O.3       1 <0>        -0.2922
     26 C17        -5.7340   -0.4739   -7.2690 C.3       1 <0>         0.2098
     27 O3         -5.6592   -1.1405   -5.9952 O.3       1 <0>        -0.2960
     28 C18        -2.6685    2.6339    2.3961 C.3       1 <0>        -0.0005
     29 C19        -3.4318    3.5933    3.3123 C.3       1 <0>         0.0344
     30 N6         -4.8321    3.1594    3.4141 N.pl3     1 <0>        -0.4890
     31 C20        -5.4711    3.1372    2.0910 C.3       1 <0>         0.0305
     32 C21        -4.7079    2.1777    1.1748 C.3       1 <0>         0.0025
     33 C22        -5.5443    3.9706    4.3005 C.ar      1 <0>         0.0619
     34 C23        -5.7245    5.3191    4.0187 C.ar      1 <0>        -0.1469
     35 C24        -6.4295    6.1181    4.8968 C.ar      1 <0>        -0.1082
     36 C25        -6.9557    5.5776    6.0560 C.ar      1 <0>        -0.1033
     37 C26        -6.7782    4.2360    6.3396 C.ar      1 <0>        -0.0768
     38 C27        -6.0789    3.4298    5.4627 C.ar      1 <0>        -0.0494
     39 C28        -5.8913    1.9663    5.7695 C.3       1 <0>        -0.1103
     40 C29        -7.3534    3.6514    7.6039 C.3       1 <0>        -0.1220
     41 H3          2.5582   -2.2622    0.8348 H         1 <0>         0.0752
     42 H4          1.0480   -2.1319    1.7679 H         1 <0>         0.0655
     43 H5          0.9884   -2.4632    0.0201 H         1 <0>         0.0651
     44 H6          1.9481   -0.2231   -0.4373 H         1 <0>         0.0855
     45 H7          2.0077    0.1083    1.3105 H         1 <0>         0.0871
     46 H8         -1.7012    0.0186    1.7809 H         1 <0>         0.0559
     47 H9         -0.5436   -1.3020    2.0715 H         1 <0>         0.1127
     48 H10        -0.1610    0.3512    2.6088 H         1 <0>         0.0821
     49 H11        -0.2553   -0.5052   -1.5809 H         1 <0>         0.0825
     50 H12        -0.6957   -1.7789   -0.4181 H         1 <0>         0.1112
     51 H13        -1.7654   -0.3749   -0.6478 H         1 <0>         0.0564
     52 H14        -3.4317   -0.2684   -1.3909 H         1 <0>         0.1619
     53 H15        -4.4875   -1.3171   -3.4347 H         1 <0>         0.1583
     54 H16        -5.0438    3.1670   -5.4668 H         1 <0>         0.1579
     55 H17        -4.8087   -0.6125   -7.8283 H         1 <0>         0.0997
     56 H18        -6.5867   -0.8381   -7.8420 H         1 <0>         0.1470
     57 H19        -2.6846    1.6318    2.8246 H         1 <0>         0.1407
     58 H20        -1.6366    2.9703    2.2959 H         1 <0>         0.1243
     59 H21        -3.3925    4.6006    2.8977 H         1 <0>         0.0688
     60 H22        -2.9769    3.5894    4.3028 H         1 <0>         0.1274
     61 H23        -5.4550    4.1393    1.6625 H         1 <0>         0.0670
     62 H24        -6.5032    2.8009    2.1908 H         1 <0>         0.1290
     63 H25        -5.1628    2.1816    0.1843 H         1 <0>         0.1329
     64 H26        -4.7472    1.1703    1.5891 H         1 <0>         0.1434
     65 H27        -5.3132    5.7419    3.1140 H         1 <0>         0.1175
     66 H28        -6.5699    7.1664    4.6783 H         1 <0>         0.1275
     67 H29        -7.5067    6.2047    6.7412 H         1 <0>         0.1292
     68 H30        -4.9756    1.8302    6.3447 H         1 <0>         0.0702
     69 H31        -6.7412    1.6046    6.3483 H         1 <0>         0.0680
     70 H32        -5.8216    1.4057    4.8373 H         1 <0>         0.0742
     71 H33        -8.3633    3.2900    7.4104 H         1 <0>         0.0760
     72 H34        -6.7287    2.8230    7.9381 H         1 <0>         0.0724
     73 H35        -7.3840    4.4185    8.3777 H         1 <0>         0.0717
     74 N7         -3.3076    2.6380    1.0635 N.4       1 <0>        -0.3927
     75 H36        -3.2994    3.5953    0.6923 H         1 <0>         0.4444
@<TRIPOS>BOND
     1    1    2 1
     2    1   41 1
     3    1   42 1
     4    1   43 1
     5    2    3 1
     6    2   44 1
     7    2   45 1
     8    3    4 1
     9    3    5 1
    10    3    6 1
    11    4   46 1
    12    4   47 1
    13    4   48 1
    14    5   49 1
    15    5   50 1
    16    5   51 1
    17    6   10 1
    18    6    7 1
    19    7    8 2
    20    7   11 1
    21    8    9 1
    22    9   10 2
    23   11   12 1
    24   11   13 1
    25   11   74 1
    26   13   23 1
    27   13   14 2
    28   14   15 1
    29   14   52 1
    30   15   20 ar
    31   15   16 ar
    32   16   17 ar
    33   16   53 1
    34   17   27 1
    35   17   18 ar
    36   18   19 ar
    37   18   25 1
    38   19   20 ar
    39   19   54 1
    40   20   21 1
    41   21   22 1
    42   21   23 am
    43   23   24 2
    44   25   26 1
    45   26   27 1
    46   26   55 1
    47   26   56 1
    48   28   29 1
    49   28   57 1
    50   28   58 1
    51   28   74 1
    52   29   30 1
    53   29   59 1
    54   29   60 1
    55   30   31 1
    56   30   33 1
    57   31   32 1
    58   31   61 1
    59   31   62 1
    60   32   63 1
    61   32   64 1
    62   32   74 1
    63   33   38 ar
    64   33   34 ar
    65   34   35 ar
    66   34   65 1
    67   35   36 ar
    68   35   66 1
    69   36   37 ar
    70   36   67 1
    71   37   38 ar
    72   37   40 1
    73   38   39 1
    74   39   68 1
    75   39   69 1
    76   39   70 1
    77   40   71 1
    78   40   72 1
    79   40   73 1
    80   74   75 1
@<TRIPOS>MOLECULE
ZINC08762878
   76    81     0     0     0
SMALL
USER_CHARGES
1-cyclohexyl-5-[(4-methoxyphenyl)methyl]-5-[(oxoBLAHyl)methyl]hexahydropyrimidine-2,4,6-trione
@<TRIPOS>ATOM
      1 C1         -1.3808    5.3052    6.6323 C.3       1 <0>         0.0236
      2 O1         -0.8115    6.4152    5.9352 O.3       1 <0>        -0.3101
      3 C2         -1.4153    6.7922    4.7775 C.ar      1 <0>         0.1511
      4 C3         -0.9153    7.8620    4.0494 C.ar      1 <0>        -0.1475
      5 C4         -1.5312    8.2435    2.8732 C.ar      1 <0>        -0.0681
      6 C5         -2.6447    7.5598    2.4211 C.ar      1 <0>        -0.1727
      7 C6         -3.1483    6.4968    3.1479 C.ar      1 <0>        -0.0635
      8 C7         -2.5330    6.1081    4.3220 C.ar      1 <0>        -0.2048
      9 C8         -3.3142    7.9778    1.1374 C.3       1 <0>        -0.0511
     10 C9         -2.6886    7.2190   -0.0347 C.3       1 <0>        -0.1398
     11 C10        -1.2108    7.5584   -0.0818 C.2       1 <0>         0.5112
     12 O2         -0.8324    8.7041   -0.2004 O.2       1 <0>        -0.4345
     13 N1         -0.3328    6.5374    0.0128 N.am      1 <0>        -0.6646
     14 C11        -0.7341    5.2679    0.1437 C.2       1 <0>         0.7016
     15 O3          0.1239    4.4113    0.2216 O.2       1 <0>        -0.4773
     16 N2         -2.0113    4.8726    0.1947 N.am      1 <0>        -0.5567
     17 C12        -3.0346    5.7491    0.1106 C.2       1 <0>         0.5271
     18 O4         -4.1872    5.3758    0.1533 O.2       1 <0>        -0.4393
     19 C13        -2.3082    3.4454    0.3399 C.3       1 <0>         0.1353
     20 C14        -1.7299    2.6803   -0.8521 C.3       1 <0>        -0.1403
     21 C15        -2.0401    1.1897   -0.7004 C.3       1 <0>        -0.1144
     22 C16        -1.4128    0.6674    0.5937 C.3       1 <0>        -0.1251
     23 C17        -1.9911    1.4326    1.7857 C.3       1 <0>        -0.1151
     24 C18        -1.6810    2.9231    1.6340 C.3       1 <0>        -0.1367
     25 C19        -3.3350    7.7263   -1.3253 C.3       1 <0>         0.0046
     26 C20        -2.8676    8.0364   -3.6785 C.3       1 <0>        -0.0033
     27 C21        -2.0276    7.5807   -4.8619 C.3       1 <0>        -0.1244
     28 H1         -2.3729    8.1195   -5.7443 H         1 <0>         0.1497
     29 C22        -2.2078    6.0809   -5.1129 C.3       1 <0>        -0.1275
     30 C23        -1.8355    5.3489   -3.8184 C.3       1 <0>        -0.0631
     31 H2         -1.9049    4.2699   -3.9562 H         1 <0>         0.1543
     32 C24        -2.7991    5.8147   -2.7143 C.3       1 <0>        -0.0215
     33 C25        -0.4388    5.7530   -3.4029 C.2       1 <0>         0.0876
     34 C26         0.2758    4.8629   -2.6646 C.2       1 <0>        -0.1929
     35 C27         1.5507    5.1922   -2.1915 C.2       1 <0>        -0.0156
     36 C28         2.0552    6.4296   -2.4662 C.2       1 <0>        -0.2240
     37 C29         1.2933    7.3224   -3.2320 C.2       1 <0>         0.5048
     38 O5          1.7150    8.4484   -3.4423 O.2       1 <0>        -0.5160
     39 N3          0.0931    6.9502   -3.7422 N.am      1 <0>        -0.5061
     40 C30        -0.5531    7.8861   -4.6624 C.3       1 <0>         0.0743
     41 H3         -0.8045    5.1098    7.5366 H         1 <0>         0.1083
     42 H4         -2.4118    5.5350    6.9010 H         1 <0>         0.0604
     43 H5         -1.3602    4.4242    5.9909 H         1 <0>         0.0581
     44 H6         -0.0451    8.3960    4.4018 H         1 <0>         0.1389
     45 H7         -1.1423    9.0763    2.3060 H         1 <0>         0.1334
     46 H8         -4.0210    5.9673    2.7951 H         1 <0>         0.1276
     47 H9         -2.9239    5.2746    4.8869 H         1 <0>         0.1356
     48 H10        -3.1798    9.0493    0.9897 H         1 <0>         0.1149
     49 H11        -4.3786    7.7491    1.1916 H         1 <0>         0.1168
     50 H12         0.6175    6.7300   -0.0146 H         1 <0>         0.4424
     51 H13        -3.3880    3.3007    0.3753 H         1 <0>         0.1215
     52 H14        -0.6502    2.8250   -0.8875 H         1 <0>         0.0969
     53 H15        -2.1768    3.0524   -1.7741 H         1 <0>         0.0579
     54 H16        -1.6281    0.6446   -1.5497 H         1 <0>         0.0750
     55 H17        -3.1198    1.0450   -0.6650 H         1 <0>         0.0676
     56 H18        -1.6337   -0.3944    0.7017 H         1 <0>         0.0711
     57 H19        -0.3330    0.8122    0.5583 H         1 <0>         0.0690
     58 H20        -3.0708    1.2879    1.8211 H         1 <0>         0.0659
     59 H21        -1.5442    1.0605    2.7077 H         1 <0>         0.0737
     60 H22        -0.6012    3.0678    1.5986 H         1 <0>         0.0946
     61 H23        -2.0929    3.4682    2.4833 H         1 <0>         0.0657
     62 H24        -4.3569    7.3528   -1.3910 H         1 <0>         0.1706
     63 H25        -3.3460    8.8162   -1.3221 H         1 <0>         0.1656
     64 H26        -3.9234    7.9213   -3.9240 H         1 <0>         0.1520
     65 H27        -2.6608    9.0874   -3.4768 H         1 <0>         0.1409
     66 H28        -1.5516    5.7595   -5.9217 H         1 <0>         0.1103
     67 H29        -3.2453    5.8699   -5.3721 H         1 <0>         0.1085
     68 H30        -2.6080    5.2555   -1.7984 H         1 <0>         0.1209
     69 H31        -3.8296    5.6581   -3.0334 H         1 <0>         0.1622
     70 H32        -0.1444    3.8935   -2.4410 H         1 <0>         0.1550
     71 H33         2.1255    4.4791   -1.6192 H         1 <0>         0.1543
     72 H34         3.0291    6.7173   -2.0986 H         1 <0>         0.1639
     73 H35        -0.0489    7.8365   -5.6275 H         1 <0>         0.1124
     74 H36        -0.4527    8.8965   -4.2659 H         1 <0>         0.1122
     75 N4         -2.5352    7.2514   -2.4723 N.4       1 <0>        -0.4084
     76 H37        -1.5388    7.3756   -2.2580 H         1 <0>         0.4150
@<TRIPOS>BOND
     1    1    2 1
     2    1   41 1
     3    1   42 1
     4    1   43 1
     5    2    3 1
     6    3    8 ar
     7    3    4 ar
     8    4    5 ar
     9    4   44 1
    10    5    6 ar
    11    5   45 1
    12    6    7 ar
    13    6    9 1
    14    7    8 ar
    15    7   46 1
    16    8   47 1
    17    9   10 1
    18    9   48 1
    19    9   49 1
    20   10   17 1
    21   10   11 1
    22   10   25 1
    23   11   12 2
    24   11   13 am
    25   13   14 am
    26   13   50 1
    27   14   15 2
    28   14   16 am
    29   16   17 am
    30   16   19 1
    31   17   18 2
    32   19   24 1
    33   19   20 1
    34   19   51 1
    35   20   21 1
    36   20   52 1
    37   20   53 1
    38   21   22 1
    39   21   54 1
    40   21   55 1
    41   22   23 1
    42   22   56 1
    43   22   57 1
    44   23   24 1
    45   23   58 1
    46   23   59 1
    47   24   60 1
    48   24   61 1
    49   25   62 1
    50   25   63 1
    51   25   75 1
    52   26   27 1
    53   26   64 1
    54   26   65 1
    55   26   75 1
    56   27   28 1
    57   27   40 1
    58   27   29 1
    59   29   30 1
    60   29   66 1
    61   29   67 1
    62   30   31 1
    63   30   32 1
    64   30   33 1
    65   32   68 1
    66   32   69 1
    67   32   75 1
    68   33   39 1
    69   33   34 2
    70   34   35 1
    71   34   70 1
    72   35   36 2
    73   35   71 1
    74   36   37 1
    75   36   72 1
    76   37   38 2
    77   37   39 am
    78   39   40 1
    79   40   73 1
    80   40   74 1
    81   75   76 1
@<TRIPOS>MOLECULE
ZINC06194850
   75    80     0     0     0
SMALL
USER_CHARGES
3-[(S)-[4-(4-methoxyphenyl)piperazin-1-yl]-[1-[[(2S)-tetrahydrofuran-2-yl]methyl]tetrazol-5-yl]methyl]-6,7-dimethyl-1H-quinolin-2-one
@<TRIPOS>ATOM
      1 C1         -2.5473    4.4343   -0.4543 C.3       1 <0>        -0.1232
      2 C2         -1.2827    3.6176   -0.3849 C.ar      1 <0>        -0.1061
      3 C3         -0.0728    4.2480   -0.3106 C.ar      1 <0>        -0.0406
      4 C4          1.1009    3.4903   -0.2467 C.ar      1 <0>        -0.1580
      5 C5          2.4139    4.1332   -0.1657 C.2       1 <0>         0.0741
      6 C6          3.5173    3.3473   -0.1066 C.2       1 <0>        -0.2842
      7 C7          3.3907    1.9417   -0.1230 C.2       1 <0>         0.5445
      8 O1          4.3955    1.2540   -0.0685 O.2       1 <0>        -0.5242
      9 N1          2.1894    1.3422   -0.1966 N.am      1 <0>        -0.6152
     10 H1          2.1383    0.3736   -0.2054 H         1 <0>         0.4279
     11 C8          1.0292    2.0844   -0.2593 C.ar      1 <0>         0.2028
     12 C9         -0.2136    1.4648   -0.3355 C.ar      1 <0>        -0.1665
     13 C10        -1.3571    2.2317   -0.4029 C.ar      1 <0>         0.0044
     14 C11        -2.7023    1.5583   -0.4916 C.3       1 <0>        -0.1351
     15 C12         4.8838    3.9770   -0.0226 C.3       1 <0>         0.2170
     16 H2          4.7934    5.0575   -0.1340 H         1 <0>         0.1606
     17 C13         5.5017    3.6598    1.3148 C.2       1 <0>         0.1069
     18 N2          6.0073    2.5103    1.6904 N.2       1 <0>        -0.2473
     19 N3          6.4374    2.6403    2.8980 N.2       1 <0>        -0.0589
     20 N4          6.2121    3.8406    3.3052 N.2       1 <0>        -0.0378
     21 N5          5.6364    4.5002    2.3575 N.pl3     1 <0>        -0.2728
     22 C14         5.2097    5.9008    2.4069 C.3       1 <0>         0.0848
     23 C15         3.7709    5.9779    2.9215 C.3       1 <0>         0.0631
     24 H3          3.1262    5.3437    2.3131 H         1 <0>         0.0845
     25 C16         3.2732    7.4383    2.8684 C.3       1 <0>        -0.1484
     26 C17         2.4527    7.5549    4.1818 C.3       1 <0>        -0.1550
     27 C18         3.2694    6.6326    5.1216 C.3       1 <0>         0.0452
     28 O2          3.7204    5.5529    4.2885 O.3       1 <0>        -0.3640
     29 C19         7.0982    3.9860   -1.0031 C.3       1 <0>         0.0004
     30 C20         7.9720    3.3473   -2.0851 C.3       1 <0>         0.0286
     31 N6          7.3878    3.6183   -3.4061 N.pl3     1 <0>        -0.4796
     32 C21         6.0250    3.0760   -3.4973 C.3       1 <0>         0.0228
     33 C22         5.1512    3.7148   -2.4152 C.3       1 <0>         0.0043
     34 C23         8.1990    3.1103   -4.4270 C.ar      1 <0>         0.0464
     35 C24         7.6765    2.2111   -5.3470 C.ar      1 <0>        -0.1183
     36 C25         8.4760    1.7154   -6.3582 C.ar      1 <0>        -0.1837
     37 C26         9.8040    2.1058   -6.4473 C.ar      1 <0>         0.1260
     38 C27        10.3284    2.9992   -5.5250 C.ar      1 <0>        -0.1264
     39 C28         9.5285    3.5009   -4.5171 C.ar      1 <0>        -0.0847
     40 O3         10.5922    1.6125   -7.4398 O.3       1 <0>        -0.3133
     41 C29         9.9867    0.6968   -8.3546 C.3       1 <0>         0.0246
     42 H4         -2.7922    4.6370   -1.4969 H         1 <0>         0.0792
     43 H5         -3.3635    3.8803    0.0096 H         1 <0>         0.0768
     44 H6         -2.4010    5.3762    0.0743 H         1 <0>         0.0731
     45 H7         -0.0231    5.3268   -0.3008 H         1 <0>         0.1432
     46 H8          2.5016    5.2095   -0.1530 H         1 <0>         0.1573
     47 H9         -0.2823    0.3871   -0.3464 H         1 <0>         0.1438
     48 H10        -3.0912    1.3897    0.5126 H         1 <0>         0.0881
     49 H11        -3.3916    2.1952   -1.0461 H         1 <0>         0.0833
     50 H12        -2.5971    0.6029   -1.0057 H         1 <0>         0.0785
     51 H13         5.8655    6.4570    3.0768 H         1 <0>         0.1337
     52 H14         5.2615    6.3319    1.4071 H         1 <0>         0.1211
     53 H15         4.1120    8.1344    2.8719 H         1 <0>         0.0901
     54 H16         2.6372    7.5999    1.9980 H         1 <0>         0.0934
     55 H17         1.4386    7.1788    4.0462 H         1 <0>         0.0841
     56 H18         2.4426    8.5809    4.5497 H         1 <0>         0.0953
     57 H19         2.6358    6.2528    5.9232 H         1 <0>         0.0952
     58 H20         4.1211    7.1716    5.5366 H         1 <0>         0.0704
     59 H21         7.0704    5.0659   -1.1486 H         1 <0>         0.1416
     60 H22         7.5138    3.7617   -0.0207 H         1 <0>         0.1273
     61 H23         8.0219    2.2705   -1.9235 H         1 <0>         0.0733
     62 H24         8.9759    3.7693   -2.0380 H         1 <0>         0.1306
     63 H25         6.0528    1.9961   -3.3518 H         1 <0>         0.0723
     64 H26         5.6092    3.3000   -4.4797 H         1 <0>         0.1321
     65 H27         4.1473    3.2927   -2.4624 H         1 <0>         0.1325
     66 H28         5.1013    4.7916   -2.5768 H         1 <0>         0.1439
     67 H29         6.6439    1.9031   -5.2747 H         1 <0>         0.1290
     68 H30         8.0684    1.0200   -7.0770 H         1 <0>         0.1347
     69 H31        11.3624    3.3028   -5.5953 H         1 <0>         0.1401
     70 H32         9.9368    4.1971   -3.7995 H         1 <0>         0.1351
     71 H33         9.6228   -0.1741   -7.8094 H         1 <0>         0.0575
     72 H34         9.1524    1.1848   -8.8584 H         1 <0>         0.0581
     73 H35        10.7232    0.3812   -9.0936 H         1 <0>         0.1064
     74 N7          5.7372    3.4160   -1.0917 N.4       1 <0>        -0.3925
     75 H36         5.7935    2.3976   -0.9738 H         1 <0>         0.4461
@<TRIPOS>BOND
     1    1    2 1
     2    1   42 1
     3    1   43 1
     4    1   44 1
     5    2   13 ar
     6    2    3 ar
     7    3    4 ar
     8    3   45 1
     9    4   11 ar
    10    4    5 1
    11    5    6 2
    12    5   46 1
    13    6    7 1
    14    6   15 1
    15    7    8 2
    16    7    9 am
    17    9   10 1
    18    9   11 1
    19   11   12 ar
    20   12   13 ar
    21   12   47 1
    22   13   14 1
    23   14   48 1
    24   14   49 1
    25   14   50 1
    26   15   16 1
    27   15   17 1
    28   15   74 1
    29   17   21 1
    30   17   18 2
    31   18   19 1
    32   19   20 2
    33   20   21 1
    34   21   22 1
    35   22   23 1
    36   22   51 1
    37   22   52 1
    38   23   24 1
    39   23   28 1
    40   23   25 1
    41   25   26 1
    42   25   53 1
    43   25   54 1
    44   26   27 1
    45   26   55 1
    46   26   56 1
    47   27   28 1
    48   27   57 1
    49   27   58 1
    50   29   30 1
    51   29   59 1
    52   29   60 1
    53   29   74 1
    54   30   31 1
    55   30   61 1
    56   30   62 1
    57   31   32 1
    58   31   34 1
    59   32   33 1
    60   32   63 1
    61   32   64 1
    62   33   65 1
    63   33   66 1
    64   33   74 1
    65   34   39 ar
    66   34   35 ar
    67   35   36 ar
    68   35   67 1
    69   36   37 ar
    70   36   68 1
    71   37   38 ar
    72   37   40 1
    73   38   39 ar
    74   38   69 1
    75   39   70 1
    76   40   41 1
    77   41   71 1
    78   41   72 1
    79   41   73 1
    80   74   75 1
@<TRIPOS>MOLECULE
ZINC35926804
   69    73     0     0     0
SMALL
USER_CHARGES

@<TRIPOS>ATOM
      1 C1         -2.5798   -7.1886    0.8292 C.3       1 <0>        -0.1298
      2 C2         -1.7522   -5.9568    0.5664 C.ar      1 <0>        -0.0221
      3 C3         -1.3030   -5.1875    1.6234 C.ar      1 <0>        -0.1401
      4 C4         -0.5439   -4.0577    1.3823 C.ar      1 <0>        -0.0173
      5 C5         -0.2337   -3.6974    0.0843 C.ar      1 <0>        -0.6879
      6 C6         -0.6822   -4.4672   -0.9726 C.ar      1 <0>        -0.0174
      7 C7         -1.4376   -5.5994   -0.7314 C.ar      1 <0>        -0.1411
      8 S1          0.7329   -2.2566   -0.2230 S.o2      1 <0>         2.6879
      9 O1          0.4245   -1.8349   -1.5445 O.2       1 <0>        -0.9448
     10 O2          0.5680   -1.4086    0.9053 O.2       1 <0>        -0.9443
     11 N1          2.3211   -2.7257   -0.2344 N.pl3     1 <0>        -0.9999
     12 C8          3.1095   -2.7268    1.0059 C.3       1 <0>         0.1054
     13 C9          3.7010   -4.1272    1.2092 C.3       1 <0>         0.0883
     14 N2          4.3470   -4.5503   -0.0412 N.pl3     1 <0>        -0.5723
     15 C10         3.5586   -4.5491   -1.2814 C.3       1 <0>         0.1096
     16 C11         2.9655   -3.1540   -1.4838 C.3       1 <0>         0.1019
     17 C12         5.6599   -4.9381   -0.0506 C.2       1 <0>         0.6619
     18 N3          6.3337   -5.0453    1.1264 N.am      1 <0>        -0.6519
     19 H1          5.8852   -4.8480    1.9636 H         1 <0>         0.4197
     20 C13         7.6286   -5.4276    1.1253 C.2       1 <0>         0.5432
     21 O3          8.2478   -5.5293    2.1716 O.2       1 <0>        -0.5082
     22 C14         8.2498   -5.7068   -0.1050 C.2       1 <0>        -0.2987
     23 C15         7.5237   -5.5819   -1.2537 C.2       1 <0>         0.1672
     24 N4          6.2478   -5.2064   -1.1995 N.2       1 <0>        -0.6127
     25 C16         8.1657   -5.8752   -2.5851 C.3       1 <0>         0.0569
     26 N5          7.5169   -7.0435   -3.1949 N.4       1 <0>        -0.3754
     27 C17         7.7646   -8.2282   -2.3634 C.3       1 <0>        -0.0257
     28 C18         6.9942   -9.4227   -2.9357 C.3       1 <0>         0.1237
     29 N6          7.3675   -9.5844   -4.3494 N.pl3     1 <0>        -0.6730
     30 C19         7.3052   -8.4020   -5.2224 C.3       1 <0>         0.1210
     31 C20         8.0608   -7.2556   -4.5422 C.3       1 <0>        -0.0243
     32 C21         7.7707  -10.8267   -4.8492 C.ar      1 <0>         0.1121
     33 C22         6.8312  -11.7035   -5.3745 C.ar      1 <0>        -0.0890
     34 C23         7.2325  -12.9299   -5.8679 C.ar      1 <0>        -0.1189
     35 C24         8.5683  -13.2858   -5.8391 C.ar      1 <0>        -0.0789
     36 C25         9.5080  -12.4162   -5.3164 C.ar      1 <0>        -0.1465
     37 C26         9.1145  -11.1844   -4.8264 C.ar      1 <0>         0.0940
     38 F1         10.0331  -10.3323   -4.3213 F         1 <0>        -0.1386
     39 H2         -1.9222   -8.0502    0.9448 H         1 <0>         0.0807
     40 H3         -3.1595   -7.0489    1.7416 H         1 <0>         0.0764
     41 H4         -3.2561   -7.3575   -0.0088 H         1 <0>         0.0760
     42 H5         -1.5453   -5.4690    2.6375 H         1 <0>         0.1353
     43 H6         -0.1935   -3.4562    2.2081 H         1 <0>         0.1400
     44 H7         -0.4401   -4.1855   -1.9868 H         1 <0>         0.1394
     45 H8         -1.7849   -6.2029   -1.5570 H         1 <0>         0.1345
     46 H9          3.9155   -1.9972    0.9277 H         1 <0>         0.0894
     47 H10         2.4658   -2.4757    1.8488 H         1 <0>         0.1171
     48 H11         4.4388   -4.0998    2.0111 H         1 <0>         0.0949
     49 H12         2.9052   -4.8269    1.4647 H         1 <0>         0.0999
     50 H13         4.2023   -4.8002   -2.1244 H         1 <0>         0.1191
     51 H14         2.7526   -5.2788   -1.2033 H         1 <0>         0.0862
     52 H15         2.2267   -3.1849   -2.2846 H         1 <0>         0.1134
     53 H16         3.7610   -2.4555   -1.7433 H         1 <0>         0.0876
     54 H17         9.2844   -6.0146   -0.1403 H         1 <0>         0.1615
     55 H18         8.0515   -5.0124   -3.2414 H         1 <0>         0.1513
     56 H19         9.2257   -6.0831   -2.4394 H         1 <0>         0.1478
     57 H20         8.8313   -8.4522   -2.3586 H         1 <0>         0.1349
     58 H21         7.4292   -8.0338   -1.3447 H         1 <0>         0.1315
     59 H22         7.2544  -10.3253   -2.3827 H         1 <0>         0.1145
     60 H23         5.9227   -9.2385   -2.8586 H         1 <0>         0.0798
     61 H24         7.7709   -8.6296   -6.1813 H         1 <0>         0.1167
     62 H25         6.2650   -8.1147   -5.3762 H         1 <0>         0.0823
     63 H26         7.9437   -6.3445   -5.1290 H         1 <0>         0.1409
     64 H27         9.1185   -7.5090   -4.4714 H         1 <0>         0.1339
     65 H28         5.7874  -11.4272   -5.3971 H         1 <0>         0.1347
     66 H29         6.5016  -13.6120   -6.2765 H         1 <0>         0.1371
     67 H30         8.8786  -14.2455   -6.2253 H         1 <0>         0.1400
     68 H31        10.5505  -12.6974   -5.2951 H         1 <0>         0.1413
     69 H32         6.5230   -6.8808   -3.2566 H         1 <0>         0.4276
@<TRIPOS>BOND
     1    1    2 1
     2    1   39 1
     3    1   40 1
     4    1   41 1
     5    2    7 ar
     6    2    3 ar
     7    3    4 ar
     8    3   42 1
     9    4    5 ar
    10    4   43 1
    11    5    6 ar
    12    5    8 1
    13    6    7 ar
    14    6   44 1
    15    7   45 1
    16    8    9 2
    17    8   10 2
    18    8   11 1
    19   11   16 1
    20   11   12 1
    21   12   13 1
    22   12   46 1
    23   12   47 1
    24   13   14 1
    25   13   48 1
    26   13   49 1
    27   14   15 1
    28   14   17 1
    29   15   16 1
    30   15   50 1
    31   15   51 1
    32   16   52 1
    33   16   53 1
    34   17   24 2
    35   17   18 1
    36   18   19 1
    37   18   20 am
    38   20   21 2
    39   20   22 1
    40   22   23 2
    41   22   54 1
    42   23   24 1
    43   23   25 1
    44   25   26 1
    45   25   55 1
    46   25   56 1
    47   26   31 1
    48   26   27 1
    49   26   69 1
    50   27   28 1
    51   27   57 1
    52   27   58 1
    53   28   29 1
    54   28   59 1
    55   28   60 1
    56   29   30 1
    57   29   32 1
    58   30   31 1
    59   30   61 1
    60   30   62 1
    61   31   63 1
    62   31   64 1
    63   32   37 ar
    64   32   33 ar
    65   33   34 ar
    66   33   65 1
    67   34   35 ar
    68   34   66 1
    69   35   36 ar
    70   35   67 1
    71   36   37 ar
    72   36   68 1
    73   37   38 1
@<TRIPOS>MOLECULE
ZINC39691328
   72    76     0     0     0
SMALL
USER_CHARGES

@<TRIPOS>ATOM
      1 C1          6.9256   -4.7975   -1.6889 C.ar      1 <0>        -0.1176
      2 C2          6.4824   -3.5981   -1.1341 C.ar      1 <0>        -0.1102
      3 C3          7.1287   -2.4277   -1.3876 C.ar      1 <0>        -0.1118
      4 C4          8.2608   -2.4247   -2.2206 C.ar      1 <0>        -0.0330
      5 C5          8.7118   -3.6444   -2.7844 C.ar      1 <0>        -0.0522
      6 C6          8.0178   -4.8331   -2.4999 C.ar      1 <0>        -0.1019
      7 C7          9.8437   -3.6416   -3.6167 C.ar      1 <0>        -0.0990
      8 C8         10.4906   -2.4709   -3.8700 C.ar      1 <0>        -0.1173
      9 C9         10.0475   -1.2720   -3.3153 C.ar      1 <0>        -0.1000
     10 C10         8.9544   -1.2363   -2.5049 C.ar      1 <0>        -0.0630
     11 C11         8.4906    0.0709   -1.9156 C.3       1 <0>        -0.1027
     12 C12         9.0720    0.2338   -0.5349 C.2       1 <0>         0.5183
     13 O1          9.7920   -0.6268   -0.0746 O.2       1 <0>        -0.5183
     14 N1          8.7917    1.3359    0.1885 N.am      1 <0>        -0.7353
     15 C13         9.3569    1.4944    1.5308 C.3       1 <0>         0.1102
     16 C14         8.8861    2.8215    2.1290 C.3       1 <0>         0.1053
     17 N2          9.4512    2.9799    3.4713 N.am      1 <0>        -0.7252
     18 C15         9.1710    4.0821    4.1947 C.2       1 <0>         0.5228
     19 O2          8.4510    4.9427    3.7344 O.2       1 <0>        -0.5170
     20 C16         9.7524    4.2450    5.5755 C.3       1 <0>        -0.1132
     21 H1          9.9376    3.2699    6.0260 H         1 <0>         0.1137
     22 C17         8.8012    5.0766    6.4650 C.3       1 <0>         0.1163
     23 N3          9.7002    5.9118    7.2958 N.am      1 <0>        -0.6196
     24 C18        10.7858    6.3174    6.3711 C.3       1 <0>         0.0922
     25 C19        11.0533    5.0631    5.5156 C.3       1 <0>        -0.0726
     26 C20        11.3604    5.4629    4.0757 C.3       1 <0>        -0.1484
     27 C21        12.6880    6.2247    4.0342 C.3       1 <0>        -0.0078
     28 N4         13.7594    5.3739    4.5661 N.4       1 <0>        -0.5052
     29 C22        13.5030    5.0707    5.9793 C.3       1 <0>        -0.0114
     30 C23        12.2099    4.2600    6.1030 C.3       1 <0>        -0.1361
     31 C24         9.5624    6.2303    8.5981 C.2       1 <0>         0.5834
     32 O3          8.6832    5.7143    9.2603 O.2       1 <0>        -0.5090
     33 C25        10.4802    7.2068    9.2211 C.ar      1 <0>        -0.1326
     34 C26        11.1880    8.1097    8.4256 C.ar      1 <0>        -0.0956
     35 C27        12.0426    9.0189    9.0126 C.ar      1 <0>        -0.1200
     36 C28        12.1998    9.0371   10.3887 C.ar      1 <0>        -0.0089
     37 C29        11.5003    8.1438   11.1832 C.ar      1 <0>        -0.1107
     38 C30        10.6385    7.2338   10.6080 C.ar      1 <0>        -0.0428
     39 Cl1        13.2783   10.1839   11.1205 Cl        1 <0>        -0.0480
     40 H2          6.3969   -5.7130   -1.4683 H         1 <0>         0.1250
     41 H3          5.6127   -3.5976   -0.4937 H         1 <0>         0.1229
     42 H4          6.7734   -1.5058   -0.9513 H         1 <0>         0.1194
     43 H5          8.3499   -5.7699   -2.9225 H         1 <0>         0.1290
     44 H6         10.1990   -4.5635   -4.0530 H         1 <0>         0.1290
     45 H7         11.3604   -2.4715   -4.5101 H         1 <0>         0.1253
     46 H8         10.5790   -0.3572   -3.5320 H         1 <0>         0.1204
     47 H9          8.8230    0.8932   -2.5492 H         1 <0>         0.1079
     48 H10         7.4023    0.0761   -1.8546 H         1 <0>         0.1080
     49 H11         8.2159    2.0242   -0.1796 H         1 <0>         0.4053
     50 H12         9.0245    0.6720    2.1644 H         1 <0>         0.0758
     51 H13        10.4452    1.4891    1.4698 H         1 <0>         0.0716
     52 H14         9.2184    3.6439    1.4955 H         1 <0>         0.0791
     53 H15         7.7978    2.8268    2.1901 H         1 <0>         0.0820
     54 H16        10.0271    2.2916    3.8394 H         1 <0>         0.4041
     55 H17         8.1587    5.7063    5.8494 H         1 <0>         0.1005
     56 H18         8.2007    4.4212    7.0958 H         1 <0>         0.0996
     57 H19        10.4599    7.1457    5.7419 H         1 <0>         0.0914
     58 H20        11.6796    6.5925    6.9310 H         1 <0>         0.0951
     59 H21        11.4348    4.5682    3.4576 H         1 <0>         0.0975
     60 H22        10.5623    6.1018    3.6974 H         1 <0>         0.1279
     61 H23        12.9183    6.4972    3.0042 H         1 <0>         0.1404
     62 H24        12.6075    7.1279    4.6391 H         1 <0>         0.1329
     63 H25        13.7963    4.5135    4.0402 H         1 <0>         0.4290
     64 H26        14.3341    4.4925    6.3832 H         1 <0>         0.1414
     65 H27        13.4031    6.0013    6.5379 H         1 <0>         0.1321
     66 H28        12.0108    4.0507    7.1540 H         1 <0>         0.1196
     67 H29        12.3151    3.3218    5.5582 H         1 <0>         0.0989
     68 H30        11.0667    8.0960    7.3525 H         1 <0>         0.1407
     69 H31        12.5906    9.7179    8.3983 H         1 <0>         0.1416
     70 H32        11.6272    8.1625   12.2555 H         1 <0>         0.1474
     71 H33        10.0904    6.5405   11.2288 H         1 <0>         0.1485
     72 H34        14.6424    5.8548    4.4815 H         1 <0>         0.4349
@<TRIPOS>BOND
     1    1    6 ar
     2    1    2 ar
     3    1   40 1
     4    2    3 ar
     5    2   41 1
     6    3    4 ar
     7    3   42 1
     8    4   10 ar
     9    4    5 ar
    10    5    6 ar
    11    5    7 ar
    12    6   43 1
    13    7    8 ar
    14    7   44 1
    15    8    9 ar
    16    8   45 1
    17    9   10 ar
    18    9   46 1
    19   10   11 1
    20   11   12 1
    21   11   47 1
    22   11   48 1
    23   12   13 2
    24   12   14 am
    25   14   15 1
    26   14   49 1
    27   15   16 1
    28   15   50 1
    29   15   51 1
    30   16   17 1
    31   16   52 1
    32   16   53 1
    33   17   18 am
    34   17   54 1
    35   18   19 2
    36   18   20 1
    37   20   21 1
    38   20   25 1
    39   20   22 1
    40   22   23 1
    41   22   55 1
    42   22   56 1
    43   23   24 1
    44   23   31 am
    45   24   25 1
    46   24   57 1
    47   24   58 1
    48   25   30 1
    49   25   26 1
    50   26   27 1
    51   26   59 1
    52   26   60 1
    53   27   28 1
    54   27   61 1
    55   27   62 1
    56   28   29 1
    57   28   63 1
    58   28   72 1
    59   29   30 1
    60   29   64 1
    61   29   65 1
    62   30   66 1
    63   30   67 1
    64   31   32 2
    65   31   33 1
    66   33   38 ar
    67   33   34 ar
    68   34   35 ar
    69   34   68 1
    70   35   36 ar
    71   35   69 1
    72   36   37 ar
    73   36   39 1
    74   37   38 ar
    75   37   70 1
    76   38   71 1
@<TRIPOS>MOLECULE
ZINC00925496
   63    67     0     0     0
SMALL
USER_CHARGES
N-[(6-ethoxy-2-oxo-1H-quinolin-3-yl)methyl]-4-methyl-N-phenethyl-8-thia-7,9-diazabicyclo[4.3.0]nona-2,4,6,9-tetraene-5-sulfonamide
@<TRIPOS>ATOM
      1 C1         -3.6117   -3.9710    9.1408 C.3       1 <0>        -0.1538
      2 C2         -2.9629   -2.7329    8.5187 C.3       1 <0>         0.0533
      3 O1         -2.6361   -3.0014    7.1537 O.3       1 <0>        -0.3131
      4 C3         -2.0480   -1.9971    6.4507 C.ar      1 <0>         0.1021
      5 C4         -1.7925   -0.7754    7.0693 C.ar      1 <0>        -0.1471
      6 C5         -1.1985    0.2534    6.3727 C.ar      1 <0>        -0.1228
      7 C6         -0.8469    0.0770    5.0384 C.ar      1 <0>         0.1520
      8 C7         -1.1032   -1.1557    4.4095 C.ar      1 <0>        -0.0931
      9 C8         -1.7076   -2.1929    5.1276 C.ar      1 <0>        -0.0897
     10 C9         -0.7331   -1.3258    3.0031 C.2       1 <0>         0.0035
     11 C10        -0.1455   -0.2883    2.3574 C.2       1 <0>        -0.2090
     12 C11         0.0901    0.9279    3.0335 C.2       1 <0>         0.5462
     13 O2          0.6158    1.8493    2.4330 O.2       1 <0>        -0.5296
     14 N1         -0.2502    1.0956    4.3232 N.am      1 <0>        -0.6322
     15 H1         -0.0684    1.9711    4.7709 H         1 <0>         0.4213
     16 C12         0.2519   -0.4324    0.9109 C.3       1 <0>         0.1765
     17 N2         -0.8288    0.0648    0.0558 N.pl3     1 <0>        -0.9875
     18 C13        -0.9699    1.5030   -0.1847 C.3       1 <0>         0.1362
     19 C14        -1.8613    2.1159    0.8973 C.3       1 <0>        -0.1038
     20 C15        -2.1132    3.5670    0.5780 C.ar      1 <0>        -0.0778
     21 C16        -1.2596    4.5398    1.0637 C.ar      1 <0>        -0.1109
     22 C17        -1.4879    5.8705    0.7668 C.ar      1 <0>        -0.1228
     23 C18        -2.5755    6.2292   -0.0073 C.ar      1 <0>        -0.1248
     24 C19        -3.4324    5.2569   -0.4882 C.ar      1 <0>        -0.1213
     25 C20        -3.2011    3.9258   -0.1957 C.ar      1 <0>        -0.1136
     26 S1         -1.8908   -0.9990   -0.6390 S.o2      1 <0>         2.6872
     27 O3         -1.8883   -2.1646    0.1738 O.2       1 <0>        -0.9529
     28 O4         -3.0763   -0.2663   -0.9166 O.2       1 <0>        -0.9270
     29 C21        -1.2134   -1.4694   -2.1961 C.ar      1 <0>        -0.6522
     30 C22        -0.4593   -2.5900   -2.2956 C.ar      1 <0>         0.0810
     31 C23         0.0923   -2.9927   -3.5118 C.ar      1 <0>        -0.1292
     32 C24        -0.1017   -2.2814   -4.6479 C.ar      1 <0>         0.0034
     33 C25        -0.8817   -1.0961   -4.6190 C.ar      1 <0>         0.0389
     34 C26        -1.4629   -0.6770   -3.3468 C.ar      1 <0>         0.1287
     35 N3         -2.1721    0.4435   -3.4661 N.2       1 <0>        -0.5414
     36 S2         -2.0879    0.8565   -4.9754 S.3       1 <0>         0.7663
     37 N4         -1.1913   -0.2615   -5.6091 N.2       1 <0>        -0.5397
     38 C27        -0.2108   -3.4216   -1.0636 C.3       1 <0>        -0.1533
     39 H2         -3.8609   -3.7662   10.1820 H         1 <0>         0.0795
     40 H3         -4.5199   -4.2199    8.5920 H         1 <0>         0.0677
     41 H4         -2.9163   -4.8089    9.0918 H         1 <0>         0.0675
     42 H5         -2.0547   -2.4840    9.0676 H         1 <0>         0.0629
     43 H6         -3.6582   -1.8949    8.5677 H         1 <0>         0.0628
     44 H7         -2.0629   -0.6336    8.1053 H         1 <0>         0.1380
     45 H8         -1.0050    1.1964    6.8622 H         1 <0>         0.1380
     46 H9         -1.9061   -3.1410    4.6499 H         1 <0>         0.1472
     47 H10        -0.9211   -2.2584    2.4920 H         1 <0>         0.1605
     48 H11         0.4375   -1.4831    0.6880 H         1 <0>         0.0978
     49 H12         1.1578    0.1442    0.7238 H         1 <0>         0.1023
     50 H13         0.0126    1.9743   -0.1560 H         1 <0>         0.0894
     51 H14        -1.4222    1.6652   -1.1630 H         1 <0>         0.0842
     52 H15        -2.8106    1.5814    0.9317 H         1 <0>         0.0727
     53 H16        -1.3649    2.0376    1.8645 H         1 <0>         0.0831
     54 H17        -0.4121    4.2599    1.6719 H         1 <0>         0.1261
     55 H18        -0.8187    6.6302    1.1429 H         1 <0>         0.1192
     56 H19        -2.7560    7.2691   -0.2361 H         1 <0>         0.1189
     57 H20        -4.2823    5.5371   -1.0927 H         1 <0>         0.1204
     58 H21        -3.8705    3.1661   -0.5714 H         1 <0>         0.1250
     59 H22         0.6878   -3.8930   -3.5485 H         1 <0>         0.1521
     60 H23         0.3369   -2.6165   -5.5762 H         1 <0>         0.1513
     61 H24        -1.0556   -4.0907   -0.9004 H         1 <0>         0.1092
     62 H25         0.6972   -4.0091   -1.1989 H         1 <0>         0.0839
     63 H26        -0.0944   -2.7663   -0.2003 H         1 <0>         0.0923
@<TRIPOS>BOND
     1    1    2 1
     2    1   39 1
     3    1   40 1
     4    1   41 1
     5    2    3 1
     6    2   42 1
     7    2   43 1
     8    3    4 1
     9    4    9 ar
    10    4    5 ar
    11    5    6 ar
    12    5   44 1
    13    6    7 ar
    14    6   45 1
    15    7   14 1
    16    7    8 ar
    17    8    9 ar
    18    8   10 1
    19    9   46 1
    20   10   11 2
    21   10   47 1
    22   11   12 1
    23   11   16 1
    24   12   13 2
    25   12   14 am
    26   14   15 1
    27   16   17 1
    28   16   48 1
    29   16   49 1
    30   17   18 1
    31   17   26 1
    32   18   19 1
    33   18   50 1
    34   18   51 1
    35   19   20 1
    36   19   52 1
    37   19   53 1
    38   20   25 ar
    39   20   21 ar
    40   21   22 ar
    41   21   54 1
    42   22   23 ar
    43   22   55 1
    44   23   24 ar
    45   23   56 1
    46   24   25 ar
    47   24   57 1
    48   25   58 1
    49   26   27 2
    50   26   28 2
    51   26   29 1
    52   29   34 ar
    53   29   30 ar
    54   30   31 ar
    55   30   38 1
    56   31   32 ar
    57   31   59 1
    58   32   33 ar
    59   32   60 1
    60   33   37 2
    61   33   34 ar
    62   34   35 2
    63   35   36 1
    64   36   37 1
    65   38   61 1
    66   38   62 1
    67   38   63 1
@<TRIPOS>MOLECULE
ZINC15958077
   86    89     0     0     0
SMALL
USER_CHARGES
[(3S,8R,9R,10S,13R,14R,16S,17S)-17-acetamido-3-acetoxy-10,13-dimethyl-2,3,4,7,8,9,11,12,14,15,16,17-dodecahydro-1H-cyclopenta[a]phenanthren-16-yl] (4S)-5-acetoxy-4-methyl-pentanoate
@<TRIPOS>ATOM
      1 C1          4.9889    1.5731   -7.0854 C.3       1 <0>        -0.1530
      2 C2          5.4006    2.6015   -6.0299 C.3       1 <0>        -0.0898
      3 H1          4.8105    3.5090   -6.1573 H         1 <0>         0.0870
      4 C3          5.1555    2.0255   -4.6339 C.3       1 <0>        -0.1031
      5 C4          3.6548    1.8114   -4.4267 C.3       1 <0>        -0.1138
      6 C5          3.4135    1.2441   -3.0516 C.2       1 <0>         0.4626
      7 O1          4.3461    1.0326   -2.3130 O.2       1 <0>        -0.5091
      8 O2          2.1624    0.9736   -2.6472 O.3       1 <0>        -0.3415
      9 C6          2.0050    0.4293   -1.3114 C.3       1 <0>         0.0716
     10 H2          2.8951   -0.1269   -1.0221 H         1 <0>         0.0908
     11 C7          1.7445    1.5849   -0.2977 C.3       1 <0>        -0.1247
     12 C8          0.2184    1.5149   -0.1428 C.3       1 <0>        -0.0743
     13 H3         -0.2115    1.8189   -1.1335 H         1 <0>         0.0770
     14 C9         -0.4458    2.3434    0.9088 C.3       1 <0>        -0.0590
     15 H4         -0.3583    3.4182    0.6365 H         1 <0>         0.0743
     16 C10         0.1116    2.1608    2.3166 C.3       1 <0>        -0.0867
     17 C11        -0.6534    3.0629    3.2517 C.2       1 <0>        -0.1538
     18 C12        -1.8974    3.3700    3.0501 C.2       1 <0>        -0.1022
     19 C13        -2.5987    4.2623    4.0616 C.3       1 <0>        -0.1022
     20 C14        -3.3350    5.3627    3.2890 C.3       1 <0>         0.0935
     21 H5         -4.4056    5.1515    3.2838 H         1 <0>         0.0850
     22 C15        -2.8196    5.4084    1.8533 C.3       1 <0>        -0.1117
     23 C16        -3.1921    4.1358    1.0990 C.3       1 <0>        -0.1072
     24 C17        -2.7027    2.8995    1.8678 C.3       1 <0>        -0.0116
     25 C18        -1.9461    1.9859    0.9300 C.3       1 <0>        -0.0676
     26 H6         -2.3249    2.2012   -0.0869 H         1 <0>         0.0662
     27 C19        -2.1450    0.4998    1.1583 C.3       1 <0>        -0.1069
     28 C20        -1.4696   -0.3198    0.0408 C.3       1 <0>        -0.1028
     29 C21         0.0021   -0.0041    0.0020 C.3       1 <0>        -0.0593
     30 C22         0.7560   -0.4893   -1.2557 C.3       1 <0>         0.1510
     31 H7          0.1348   -0.3506   -2.1317 H         1 <0>         0.1086
     32 N1          1.1495   -1.8854   -1.0898 N.am      1 <0>        -0.7256
     33 C23         1.3501   -2.6623   -2.1728 C.2       1 <0>         0.5077
     34 O3          1.2038   -2.2016   -3.2851 O.2       1 <0>        -0.5370
     35 C24         1.7563   -4.1033   -2.0015 C.3       1 <0>        -0.1731
     36 C25         0.7188   -0.6214    1.1998 C.3       1 <0>        -0.1604
     37 C26        -3.9462    2.1861    2.4025 C.3       1 <0>        -0.1446
     38 O4         -3.1054    6.6459    3.9286 O.3       1 <0>        -0.3541
     39 C27        -3.9763    7.0169    4.8803 C.2       1 <0>         0.4581
     40 O5         -4.8998    6.2934    5.1693 O.2       1 <0>        -0.5135
     41 C28        -3.8021    8.3358    5.5882 C.3       1 <0>        -0.1489
     42 C29         6.8857    2.9319   -6.1919 C.3       1 <0>         0.0706
     43 O6          7.0993    3.5868   -7.4701 O.3       1 <0>        -0.3562
     44 C30         8.3580    3.9448   -7.7685 C.2       1 <0>         0.4587
     45 O7          9.2518    3.7186   -6.9876 O.2       1 <0>        -0.5146
     46 C31         8.6565    4.6291   -9.0776 C.3       1 <0>        -0.1476
     47 H8          5.1635    1.9835   -8.0800 H         1 <0>         0.0651
     48 H9          5.5790    0.6656   -6.9581 H         1 <0>         0.0568
     49 H10         3.9309    1.3377   -6.9700 H         1 <0>         0.0623
     50 H11         5.5305    2.7209   -3.8829 H         1 <0>         0.0767
     51 H12         5.6752    1.0721   -4.5378 H         1 <0>         0.0773
     52 H13         3.2799    1.1160   -5.1776 H         1 <0>         0.1110
     53 H14         3.1352    2.7647   -4.5227 H         1 <0>         0.1076
     54 H15         2.0350    2.5407   -0.7401 H         1 <0>         0.0740
     55 H16         2.2618    1.4241    0.6373 H         1 <0>         0.0882
     56 H17        -0.0485    1.1470    2.6771 H         1 <0>         0.0838
     57 H18         1.1658    2.4167    2.3486 H         1 <0>         0.0718
     58 H19        -0.1456    3.4582    4.1118 H         1 <0>         0.1052
     59 H20        -3.3040    3.6828    4.6568 H         1 <0>         0.0818
     60 H21        -1.8576    4.7150    4.7270 H         1 <0>         0.0783
     61 H22        -3.2571    6.2692    1.3448 H         1 <0>         0.0704
     62 H23        -1.7353    5.5194    1.8639 H         1 <0>         0.0765
     63 H24        -4.2730    4.0755    0.9876 H         1 <0>         0.0703
     64 H25        -2.7219    4.1451    0.1157 H         1 <0>         0.0762
     65 H26        -3.2064    0.2394    1.1260 H         1 <0>         0.0671
     66 H27        -1.7366    0.2092    2.1216 H         1 <0>         0.0663
     67 H28        -1.9313   -0.0718   -0.9191 H         1 <0>         0.0662
     68 H29        -1.6189   -1.3859    0.2389 H         1 <0>         0.0665
     69 H30         1.2666   -2.2539   -0.2002 H         1 <0>         0.4043
     70 H31         1.8376   -4.3342   -0.9393 H         1 <0>         0.0752
     71 H32         1.0057   -4.7490   -2.4573 H         1 <0>         0.0966
     72 H33         2.7195   -4.2691   -2.4841 H         1 <0>         0.0953
     73 H34         0.2788   -0.2416    2.1218 H         1 <0>         0.0769
     74 H35         0.6136   -1.7058    1.1668 H         1 <0>         0.0591
     75 H36         1.7759   -0.3578    1.1661 H         1 <0>         0.0639
     76 H37        -3.6460    1.2876    2.9416 H         1 <0>         0.0590
     77 H38        -4.4850    2.8516    3.0770 H         1 <0>         0.0564
     78 H39        -4.5935    1.9110    1.5698 H         1 <0>         0.0589
     79 H40        -4.3423    9.1127    5.0472 H         1 <0>         0.1050
     80 H41        -4.1951    8.2587    6.6020 H         1 <0>         0.1027
     81 H42        -2.7429    8.5900    5.6276 H         1 <0>         0.0938
     82 H43         7.2001    3.5956   -5.3865 H         1 <0>         0.0722
     83 H44         7.4689    2.0118   -6.1531 H         1 <0>         0.0727
     84 H45         8.5732    5.7085   -8.9507 H         1 <0>         0.1050
     85 H46         9.6679    4.3777   -9.3967 H         1 <0>         0.1029
     86 H47         7.9441    4.2960   -9.8324 H         1 <0>         0.0942
@<TRIPOS>BOND
     1    1    2 1
     2    1   47 1
     3    1   48 1
     4    1   49 1
     5    2    3 1
     6    2    4 1
     7    2   42 1
     8    4    5 1
     9    4   50 1
    10    4   51 1
    11    5    6 1
    12    5   52 1
    13    5   53 1
    14    6    7 2
    15    6    8 1
    16    8    9 1
    17    9   10 1
    18    9   30 1
    19    9   11 1
    20   11   12 1
    21   11   54 1
    22   11   55 1
    23   12   13 1
    24   12   29 1
    25   12   14 1
    26   14   15 1
    27   14   25 1
    28   14   16 1
    29   16   17 1
    30   16   56 1
    31   16   57 1
    32   17   18 2
    33   17   58 1
    34   18   24 1
    35   18   19 1
    36   19   20 1
    37   19   59 1
    38   19   60 1
    39   20   21 1
    40   20   22 1
    41   20   38 1
    42   22   23 1
    43   22   61 1
    44   22   62 1
    45   23   24 1
    46   23   63 1
    47   23   64 1
    48   24   25 1
    49   24   37 1
    50   25   26 1
    51   25   27 1
    52   27   28 1
    53   27   65 1
    54   27   66 1
    55   28   29 1
    56   28   67 1
    57   28   68 1
    58   29   30 1
    59   29   36 1
    60   30   31 1
    61   30   32 1
    62   32   33 am
    63   32   69 1
    64   33   34 2
    65   33   35 1
    66   35   70 1
    67   35   71 1
    68   35   72 1
    69   36   73 1
    70   36   74 1
    71   36   75 1
    72   37   76 1
    73   37   77 1
    74   37   78 1
    75   38   39 1
    76   39   40 2
    77   39   41 1
    78   41   79 1
    79   41   80 1
    80   41   81 1
    81   42   43 1
    82   42   82 1
    83   42   83 1
    84   43   44 1
    85   44   45 2
    86   44   46 1
    87   46   84 1
    88   46   85 1
    89   46   86 1
@<TRIPOS>MOLECULE
ZINC16741556
   71    75     0     0     0
SMALL
USER_CHARGES
(5R)-1-(2-diethylaminoethyl)-4-(2,3-dihydro-1,4-benzodioxine-6-carbonyl)-3-hydroxy-5-(3-phenoxyphenyl)-5H-pyrrol-2-one
@<TRIPOS>ATOM
      1 C1          5.4333    5.8889    1.0043 C.3       1 <0>        -0.1920
      2 C2          6.8290    6.1988    0.4595 C.3       1 <0>        -0.0161
      3 N1          7.8206    5.3624    1.1488 N.4       1 <0>        -0.3944
      4 C3          7.8540    5.6622    2.5865 C.3       1 <0>        -0.0134
      5 C4          8.3712    7.0864    2.7987 C.3       1 <0>        -0.1859
      6 C5          7.5602    3.9358    0.9143 C.3       1 <0>        -0.0480
      7 C6          7.7782    3.6141   -0.5655 C.3       1 <0>         0.1173
      8 N2          7.5185    2.1914   -0.7993 N.am      1 <0>        -0.6127
      9 C7          6.2255    1.5970   -1.1582 C.3       1 <0>         0.2649
     10 H1          5.8537    2.0413   -2.0933 H         1 <0>         0.0783
     11 C8          6.4665    0.1112   -1.2885 C.2       1 <0>        -0.4944
     12 C9          7.7764   -0.0970   -1.0197 C.2       1 <0>         0.2642
     13 C10         8.4229    1.1983   -0.7222 C.2       1 <0>         0.5169
     14 O1          9.5967    1.3442   -0.4444 O.2       1 <0>        -0.5203
     15 O2          8.3962   -1.2997   -1.0247 O.3       1 <0>        -0.6327
     16 C11         5.4716   -0.9092   -1.6335 C.2       1 <0>         0.5055
     17 O3          5.1604   -1.7562   -0.8168 O.2       1 <0>        -0.4651
     18 C12         4.8476   -0.9092   -2.9711 C.ar      1 <0>        -0.1386
     19 C13         5.1697    0.0895   -3.8951 C.ar      1 <0>        -0.0635
     20 C14         4.5852    0.0874   -5.1416 C.ar      1 <0>        -0.1304
     21 C15         3.6742   -0.9050   -5.4871 C.ar      1 <0>         0.0686
     22 C16         3.3511   -1.9047   -4.5719 C.ar      1 <0>         0.0369
     23 C17         3.9334   -1.9076   -3.3182 C.ar      1 <0>        -0.0638
     24 O4          2.4669   -2.8873   -4.8977 O.3       1 <0>        -0.3061
     25 C18         1.6196   -2.6419   -6.0253 C.3       1 <0>         0.0178
     26 C19         2.4866   -2.0948   -7.1673 C.3       1 <0>         0.0178
     27 O5          3.1033   -0.8822   -6.7206 O.3       1 <0>        -0.3058
     28 C20         5.2134    1.8647   -0.0742 C.ar      1 <0>        -0.0683
     29 C21         5.5464    1.6484    1.2505 C.ar      1 <0>        -0.1026
     30 C22         4.6221    1.8984    2.2477 C.ar      1 <0>        -0.1088
     31 C23         3.3592    2.3544    1.9223 C.ar      1 <0>        -0.1268
     32 C24         3.0207    2.5668    0.5937 C.ar      1 <0>         0.0872
     33 C25         3.9523    2.3205   -0.4050 C.ar      1 <0>        -0.1269
     34 O6          1.7794    3.0156    0.2709 O.3       1 <0>        -0.2622
     35 C26         0.8830    2.1178   -0.2157 C.ar      1 <0>         0.1175
     36 C27         1.2355    0.7816   -0.3407 C.ar      1 <0>        -0.1869
     37 C28         0.3204   -0.1300   -0.8302 C.ar      1 <0>        -0.0769
     38 C29        -0.9422    0.2899   -1.2063 C.ar      1 <0>        -0.1501
     39 C30        -1.2942    1.6219   -1.0881 C.ar      1 <0>        -0.0855
     40 C31        -0.3847    2.5366   -0.5938 C.ar      1 <0>        -0.1476
     41 H2          4.6908    6.5152    0.4881 H         1 <0>         0.1033
     42 H3          5.4054    6.1011    2.0833 H         1 <0>         0.0780
     43 H4          5.2002    4.8276    0.8332 H         1 <0>         0.0836
     44 H5          6.8569    5.9866   -0.6195 H         1 <0>         0.1307
     45 H6          7.0621    7.2601    0.6306 H         1 <0>         0.1304
     46 H7          6.8397    5.5746    3.0030 H         1 <0>         0.1275
     47 H8          8.5215    4.9503    3.0941 H         1 <0>         0.1299
     48 H9          8.3962    7.3108    3.8753 H         1 <0>         0.1030
     49 H10         7.7037    7.7983    2.2911 H         1 <0>         0.0785
     50 H11         9.3855    7.1740    2.3822 H         1 <0>         0.0805
     51 H12         8.2472    3.3323    1.5258 H         1 <0>         0.1344
     52 H13         6.5215    3.7023    1.1912 H         1 <0>         0.1388
     53 H14         7.0912    4.2176   -1.1770 H         1 <0>         0.0958
     54 H15         8.8169    3.8476   -0.8424 H         1 <0>         0.1010
     55 H16         5.8763    0.8624   -3.6310 H         1 <0>         0.1396
     56 H17         4.8356    0.8593   -5.8543 H         1 <0>         0.1356
     57 H18         3.6823   -2.6812   -2.6075 H         1 <0>         0.1418
     58 H19         1.1380   -3.5816   -6.3334 H         1 <0>         0.1229
     59 H20         0.8481   -1.9072   -5.7513 H         1 <0>         0.0769
     60 H21         3.2563   -2.8353   -7.4304 H         1 <0>         0.0800
     61 H22         1.8541   -1.8958   -8.0450 H         1 <0>         0.1236
     62 H23         6.5315    1.2875    1.5067 H         1 <0>         0.1245
     63 H24         4.8859    1.7326    3.2818 H         1 <0>         0.1298
     64 H25         2.6359    2.5449    2.7014 H         1 <0>         0.1296
     65 H26         3.6914    2.4853   -1.4400 H         1 <0>         0.1313
     66 H27         2.2231    0.4538   -0.0513 H         1 <0>         0.1299
     67 H28         0.5927   -1.1710   -0.9232 H         1 <0>         0.1272
     68 H29        -1.6546   -0.4236   -1.5934 H         1 <0>         0.1246
     69 H30        -2.2811    1.9472   -1.3822 H         1 <0>         0.1299
     70 H31        -0.6600    3.5769   -0.5020 H         1 <0>         0.1295
     71 H32         8.8106    5.5983    0.7313 H         1 <0>         0.4408
@<TRIPOS>BOND
     1    1    2 1
     2    1   41 1
     3    1   42 1
     4    1   43 1
     5    2    3 1
     6    2   44 1
     7    2   45 1
     8    3    4 1
     9    3    6 1
    10    3   71 1
    11    4    5 1
    12    4   46 1
    13    4   47 1
    14    5   48 1
    15    5   49 1
    16    5   50 1
    17    6    7 1
    18    6   51 1
    19    6   52 1
    20    7    8 1
    21    7   53 1
    22    7   54 1
    23    8   13 am
    24    8    9 1
    25    9   10 1
    26    9   11 1
    27    9   28 1
    28   11   12 2
    29   11   16 1
    30   12   13 1
    31   12   15 1
    32   13   14 2
    33   16   17 2
    34   16   18 1
    35   18   23 ar
    36   18   19 ar
    37   19   20 ar
    38   19   55 1
    39   20   21 ar
    40   20   56 1
    41   21   27 1
    42   21   22 ar
    43   22   23 ar
    44   22   24 1
    45   23   57 1
    46   24   25 1
    47   25   26 1
    48   25   58 1
    49   25   59 1
    50   26   27 1
    51   26   60 1
    52   26   61 1
    53   28   33 ar
    54   28   29 ar
    55   29   30 ar
    56   29   62 1
    57   30   31 ar
    58   30   63 1
    59   31   32 ar
    60   31   64 1
    61   32   33 ar
    62   32   34 1
    63   33   65 1
    64   34   35 1
    65   35   40 ar
    66   35   36 ar
    67   36   37 ar
    68   36   66 1
    69   37   38 ar
    70   37   67 1
    71   38   39 ar
    72   38   68 1
    73   39   40 ar
    74   39   69 1
    75   40   70 1
@<TRIPOS>MOLECULE
ZINC36579529
   84    86     0     0     0
SMALL
USER_CHARGES

@<TRIPOS>ATOM
      1 C1          0.1799   -1.0853   -5.0356 C.3       1 <0>        -0.1527
      2 C2         -0.1212   -0.9358   -3.5429 C.3       1 <0>        -0.0705
      3 C3          0.5329    0.3432   -3.0164 C.3       1 <0>        -0.1745
      4 C4         -1.6347   -0.8582   -3.3332 C.3       1 <0>        -0.1415
      5 C5          0.4373   -2.1429   -2.7866 C.3       1 <0>        -0.1157
      6 C6          1.9080   -1.8950   -2.4453 C.3       1 <0>         0.1778
      7 C7          2.0018   -0.9108   -1.2777 C.3       1 <0>        -0.2089
      8 C8          2.5701   -3.2172   -2.0523 C.3       1 <0>        -0.1615
      9 N1          2.5925   -1.3342   -3.6129 N.am      1 <0>        -0.7175
     10 C9          3.8720   -0.9232   -3.5110 C.2       1 <0>         0.5004
     11 O1          4.4567   -1.0176   -2.4526 O.2       1 <0>        -0.4996
     12 C10         4.5760   -0.3463   -4.7120 C.3       1 <0>         0.2094
     13 H1          4.1531    0.6305   -4.9466 H         1 <0>         0.1435
     14 C11         4.3958   -1.2679   -5.8907 C.2       1 <0>        -0.0312
     15 C12         3.5652   -1.0640   -6.9289 C.2       1 <0>        -0.1872
     16 C13         3.7151   -2.1700   -7.7968 C.2       1 <0>        -0.2078
     17 C14         4.6283   -2.9837   -7.2369 C.2       1 <0>        -0.0377
     18 O2          5.0414   -2.4294   -6.0854 O.3       1 <0>        -0.1483
     19 N2          6.0041   -0.2025   -4.4185 N.am      1 <0>        -0.5740
     20 C15         6.5895    1.0090   -4.4969 C.2       1 <0>         0.5264
     21 O3          5.9127    1.9989   -4.6783 O.2       1 <0>        -0.5298
     22 C16         8.0850    1.1335   -4.3592 C.3       1 <0>         0.1247
     23 H2          8.5513    0.1562   -4.4841 H         1 <0>         0.1239
     24 C17         8.4382    1.7100   -2.9719 C.3       1 <0>        -0.1307
     25 C18         9.6303    2.6538   -3.2810 C.3       1 <0>        -0.1311
     26 C19         9.2356    3.2078   -4.6728 C.3       1 <0>         0.1032
     27 N3          8.6041    2.0678   -5.3688 N.am      1 <0>        -0.5874
     28 C20         8.5173    1.9089   -6.7043 C.2       1 <0>         0.6672
     29 O4          7.9723    0.9254   -7.1650 O.2       1 <0>        -0.5594
     30 O5          9.0343    2.8399   -7.5280 O.3       1 <0>        -0.3534
     31 C21         8.9064    2.6069   -8.9321 C.3       1 <0>         0.1293
     32 C22         9.5387    3.7458   -9.6899 C.ar      1 <0>        -0.0996
     33 C23         8.7831    4.8512  -10.0336 C.ar      1 <0>        -0.0927
     34 C24         9.3630    5.8958  -10.7287 C.ar      1 <0>        -0.1228
     35 C25        10.6987    5.8353  -11.0798 C.ar      1 <0>        -0.1074
     36 C26        11.4545    4.7303  -10.7354 C.ar      1 <0>        -0.1234
     37 C27        10.8756    3.6875  -10.0365 C.ar      1 <0>        -0.0935
     38 C28         6.7958   -1.3755   -4.0398 C.3       1 <0>         0.1728
     39 C29         7.6233   -1.8413   -5.2394 C.3       1 <0>        -0.1742
     40 C30         7.7317   -1.0084   -2.8864 C.3       1 <0>        -0.1850
     41 C31         5.8594   -2.5019   -3.5979 C.3       1 <0>        -0.2022
     42 H3          1.2156   -0.8048   -5.2272 H         1 <0>         0.0564
     43 H4          0.0224   -2.1212   -5.3360 H         1 <0>         0.0623
     44 H5         -0.4839   -0.4364   -5.6069 H         1 <0>         0.0655
     45 H6          0.3136    1.1687   -3.6935 H         1 <0>         0.0498
     46 H7          0.1393    0.5713   -2.0258 H         1 <0>         0.0643
     47 H8          1.6118    0.2007   -2.9546 H         1 <0>         0.0893
     48 H9         -2.1007   -1.7694   -3.7084 H         1 <0>         0.0557
     49 H10        -1.8492   -0.7517   -2.2699 H         1 <0>         0.0567
     50 H11        -2.0326    0.0017   -3.8720 H         1 <0>         0.0566
     51 H12        -0.1294   -2.2894   -1.8671 H         1 <0>         0.0823
     52 H13         0.3540   -3.0328   -3.4105 H         1 <0>         0.0702
     53 H14         1.7849   -1.4317   -0.3451 H         1 <0>         0.0574
     54 H15         3.0074   -0.4926   -1.2349 H         1 <0>         0.0853
     55 H16         1.2798   -0.1069   -1.4213 H         1 <0>         0.0916
     56 H17         2.5834   -3.8866   -2.9124 H         1 <0>         0.0534
     57 H18         3.5919   -3.0281   -1.7232 H         1 <0>         0.0729
     58 H19         2.0068   -3.6787   -1.2413 H         1 <0>         0.0638
     59 H20         2.1248   -1.2588   -4.4594 H         1 <0>         0.4050
     60 H21         2.9093   -0.2180   -7.0719 H         1 <0>         0.1492
     61 H22         3.1958   -2.3309   -8.7300 H         1 <0>         0.1504
     62 H23         4.9737   -3.9216   -7.6460 H         1 <0>         0.2027
     63 H24         7.5982    2.2712   -2.5623 H         1 <0>         0.0891
     64 H25         8.7418    0.9157   -2.2901 H         1 <0>         0.1052
     65 H26         9.6949    3.4555   -2.5454 H         1 <0>         0.0947
     66 H27        10.5660    2.0971   -3.3331 H         1 <0>         0.0833
     67 H28         8.5268    4.0291   -4.5671 H         1 <0>         0.0765
     68 H29        10.1217    3.5378   -5.2150 H         1 <0>         0.0869
     69 H30         9.4074    1.6746   -9.1927 H         1 <0>         0.0775
     70 H31         7.8507    2.5378   -9.1942 H         1 <0>         0.0769
     71 H32         7.7396    4.8984   -9.7592 H         1 <0>         0.1243
     72 H33         8.7725    6.7591  -10.9978 H         1 <0>         0.1263
     73 H34        11.1516    6.6511  -11.6236 H         1 <0>         0.1252
     74 H35        12.4979    4.6829  -11.0100 H         1 <0>         0.1262
     75 H36        11.4670    2.8259   -9.7642 H         1 <0>         0.1243
     76 H37         8.2299   -1.0132   -5.6059 H         1 <0>         0.0648
     77 H38         8.2737   -2.6616   -4.9357 H         1 <0>         0.0646
     78 H39         6.9558   -2.1810   -6.0313 H         1 <0>         0.0757
     79 H40         7.2132   -0.3438   -2.1952 H         1 <0>         0.0758
     80 H41         8.0340   -1.9145   -2.3613 H         1 <0>         0.0747
     81 H42         8.6145   -0.5053   -3.2809 H         1 <0>         0.0748
     82 H43         5.0555   -2.6126   -4.3257 H         1 <0>         0.0748
     83 H44         6.4194   -3.4345   -3.5304 H         1 <0>         0.0564
     84 H45         5.4360   -2.2609   -2.6228 H         1 <0>         0.1234
@<TRIPOS>BOND
     1    1    2 1
     2    1   42 1
     3    1   43 1
     4    1   44 1
     5    2    3 1
     6    2    4 1
     7    2    5 1
     8    3   45 1
     9    3   46 1
    10    3   47 1
    11    4   48 1
    12    4   49 1
    13    4   50 1
    14    5    6 1
    15    5   51 1
    16    5   52 1
    17    6    7 1
    18    6    8 1
    19    6    9 1
    20    7   53 1
    21    7   54 1
    22    7   55 1
    23    8   56 1
    24    8   57 1
    25    8   58 1
    26    9   10 am
    27    9   59 1
    28   10   11 2
    29   10   12 1
    30   12   13 1
    31   12   14 1
    32   12   19 1
    33   14   18 1
    34   14   15 2
    35   15   16 1
    36   15   60 1
    37   16   17 2
    38   16   61 1
    39   17   18 1
    40   17   62 1
    41   19   20 am
    42   19   38 1
    43   20   21 2
    44   20   22 1
    45   22   23 1
    46   22   27 1
    47   22   24 1
    48   24   25 1
    49   24   63 1
    50   24   64 1
    51   25   26 1
    52   25   65 1
    53   25   66 1
    54   26   27 1
    55   26   67 1
    56   26   68 1
    57   27   28 am
    58   28   29 2
    59   28   30 1
    60   30   31 1
    61   31   32 1
    62   31   69 1
    63   31   70 1
    64   32   37 ar
    65   32   33 ar
    66   33   34 ar
    67   33   71 1
    68   34   35 ar
    69   34   72 1
    70   35   36 ar
    71   35   73 1
    72   36   37 ar
    73   36   74 1
    74   37   75 1
    75   38   39 1
    76   38   40 1
    77   38   41 1
    78   39   76 1
    79   39   77 1
    80   39   78 1
    81   40   79 1
    82   40   80 1
    83   40   81 1
    84   41   82 1
    85   41   83 1
    86   41   84 1
@<TRIPOS>MOLECULE
ZINC01893996
   51    55     0     0     0
SMALL
USER_CHARGES

@<TRIPOS>ATOM
      1 C1          0.8323    3.2376   -2.6628 C.2       1 <0>        -0.1678
      2 C2          2.1872    3.4774   -2.6483 C.2       1 <0>        -0.0815
      3 C3          3.0021    2.6123   -1.9632 C.2       1 <0>        -0.1268
      4 S1          1.8272    1.4302   -1.3229 S.3       1 <0>         0.1408
      5 C4          0.3438    2.1560   -2.0011 C.2       1 <0>        -0.1426
      6 C5          4.4648    2.6488   -1.7990 C.2       1 <0>         0.2066
      7 N1          5.2427    1.8151   -1.1462 N.2       1 <0>        -0.2574
      8 N2          6.6079    2.0031   -1.1068 N.pl3     1 <0>        -0.4263
      9 C6          7.5427    1.1246   -0.5187 C.2       1 <0>         0.4676
     10 N3          7.3060   -0.1441   -0.3150 N.2       1 <0>        -0.6436
     11 C7          8.8270    1.7869   -0.1532 C.2       1 <0>        -0.2359
     12 C8          9.5604    1.3923    0.9431 C.2       1 <0>         0.1010
     13 C9         10.7129    2.1851    1.3771 C.ar      1 <0>        -0.1444
     14 C10        10.6782    3.5842    1.2894 C.ar      1 <0>        -0.0126
     15 C11        11.7563    4.3182    1.6957 C.ar      1 <0>        -0.1527
     16 C12        12.8872    3.6804    2.1953 C.ar      1 <0>         0.1623
     17 C13        12.9276    2.2928    2.2848 C.ar      1 <0>        -0.2210
     18 C14        11.8534    1.5483    1.8874 C.ar      1 <0>        -0.0323
     19 O1         13.9552    4.4148    2.5965 O.3       1 <0>        -0.3024
     20 C15        15.0839    3.6971    3.0994 C.3       1 <0>         0.0587
     21 C16        16.1806    4.6863    3.4989 C.3       1 <0>         0.0584
     22 O2         15.7248    5.4873    4.5910 O.3       1 <0>        -0.3034
     23 C17        16.5852    6.4237    5.0707 C.ar      1 <0>         0.1474
     24 C18        17.8401    6.5721    4.4982 C.ar      1 <0>        -0.2056
     25 C19        18.7132    7.5244    4.9873 C.ar      1 <0>        -0.0482
     26 C20        18.3368    8.3297    6.0474 C.ar      1 <0>        -0.1304
     27 C21        17.0861    8.1831    6.6200 C.ar      1 <0>        -0.0495
     28 C22        16.2077    7.2362    6.1299 C.ar      1 <0>        -0.1450
     29 Br1        19.5340    9.6325    6.7149 Br        1 <0>        -0.0493
     30 C23         9.2731    2.8941   -1.0350 C.2       1 <0>         0.5465
     31 O3         10.4535    3.1918   -1.1211 O.2       1 <0>        -0.4297
     32 N4          8.3369    3.5610   -1.7380 N.2       1 <0>        -0.5387
     33 C24         7.0984    3.1353   -1.7212 C.2       1 <0>         0.3921
     34 S2          5.6372    3.8344   -2.4434 S.3       1 <0>         0.1338
     35 H1          0.1649    3.9034   -3.1898 H         1 <0>         0.1500
     36 H2          2.6010    4.3299   -3.1665 H         1 <0>         0.1466
     37 H3         -0.6789    1.8214   -1.9091 H         1 <0>         0.1987
     38 H4          6.4520   -0.5255   -0.5723 H         1 <0>         0.3615
     39 H5          9.2858    0.4982    1.4831 H         1 <0>         0.1531
     40 H6          9.8011    4.0805    0.9010 H         1 <0>         0.1228
     41 H7         11.7308    5.3958    1.6286 H         1 <0>         0.1365
     42 H8         13.8085    1.8033    2.6732 H         1 <0>         0.1339
     43 H9         11.8842    0.4713    1.9616 H         1 <0>         0.1341
     44 H10        14.7852    3.1144    3.9708 H         1 <0>         0.0795
     45 H11        15.4624    3.0275    2.3270 H         1 <0>         0.0907
     46 H12        17.0734    4.1374    3.7987 H         1 <0>         0.0898
     47 H13        16.4169    5.3289    2.6507 H         1 <0>         0.0795
     48 H14        18.1344    5.9433    3.6709 H         1 <0>         0.1369
     49 H15        19.6903    7.6400    4.5421 H         1 <0>         0.1363
     50 H16        16.7943    8.8125    7.4477 H         1 <0>         0.1407
     51 H17        15.2294    7.1255    6.5738 H         1 <0>         0.1412
@<TRIPOS>BOND
     1    1    5 2
     2    1    2 1
     3    1   35 1
     4    2    3 2
     5    2   36 1
     6    3    4 1
     7    3    6 1
     8    4    5 1
     9    5   37 1
    10    6   34 1
    11    6    7 2
    12    7    8 1
    13    8   33 1
    14    8    9 1
    15    9   10 2
    16    9   11 1
    17   10   38 1
    18   11   12 2
    19   11   30 1
    20   12   13 1
    21   12   39 1
    22   13   18 ar
    23   13   14 ar
    24   14   15 ar
    25   14   40 1
    26   15   16 ar
    27   15   41 1
    28   16   17 ar
    29   16   19 1
    30   17   18 ar
    31   17   42 1
    32   18   43 1
    33   19   20 1
    34   20   21 1
    35   20   44 1
    36   20   45 1
    37   21   22 1
    38   21   46 1
    39   21   47 1
    40   22   23 1
    41   23   28 ar
    42   23   24 ar
    43   24   25 ar
    44   24   48 1
    45   25   26 ar
    46   25   49 1
    47   26   27 ar
    48   26   29 1
    49   27   28 ar
    50   27   50 1
    51   28   51 1
    52   30   31 2
    53   30   32 1
    54   32   33 2
    55   33   34 1
@<TRIPOS>MOLECULE
ZINC07060258
   60    63     0     0     0
SMALL
USER_CHARGES
2-(4-ethyl-2,5-dioxo-4-phenyl-imidazolidin-1-yl)-N-(1-tetralin-2-ylethyl)acetamide
@<TRIPOS>ATOM
      1 C1         -0.7345    3.2910    2.5247 C.3       1 <0>        -0.1596
      2 C2         -1.2198    4.0595    1.2939 C.3       1 <0>        -0.1176
      3 C3         -0.7274    3.3570    0.0271 C.3       1 <0>         0.1727
      4 C4          0.7866    3.2836    0.0122 C.2       1 <0>         0.5442
      5 O1          1.5648    4.2131    0.0104 O.2       1 <0>        -0.4537
      6 N1          1.0875    1.9700    0.0023 N.am      1 <0>        -0.5611
      7 C5         -0.0144    1.2112    0.0087 C.2       1 <0>         0.7115
      8 O2          0.0021   -0.0041    0.0020 O.2       1 <0>        -0.5362
      9 N2         -1.1427    1.9437    0.0176 N.am      1 <0>        -0.7133
     10 C6          2.4526    1.4385   -0.0129 C.3       1 <0>         0.0979
     11 C7          2.9079    1.2637   -1.4388 C.2       1 <0>         0.5035
     12 O3          2.1651    1.5545   -2.3524 O.2       1 <0>        -0.5222
     13 N3          4.1404    0.7843   -1.6988 N.am      1 <0>        -0.7201
     14 C8          4.5829    0.6144   -3.0850 C.3       1 <0>         0.1875
     15 H1          3.7367    0.3124   -3.7021 H         1 <0>         0.0965
     16 C9          5.1475    1.9376   -3.6059 C.3       1 <0>        -0.1579
     17 C10         5.6520   -0.4461   -3.1446 C.ar      1 <0>        -0.0951
     18 C11         6.6228   -0.5084   -2.1621 C.ar      1 <0>        -0.1163
     19 C12         7.5959   -1.4842   -2.2217 C.ar      1 <0>        -0.1147
     20 C13         7.6160   -2.3982   -3.2676 C.ar      1 <0>        -0.0730
     21 C14         6.6507   -2.3347   -4.2470 C.ar      1 <0>        -0.0697
     22 C15         5.6686   -1.3544   -4.1825 C.ar      1 <0>        -0.1061
     23 C16         6.6049   -3.2982   -5.4040 C.3       1 <0>        -0.0833
     24 C17         7.9484   -4.0060   -5.5670 C.3       1 <0>        -0.1207
     25 C18         8.3575   -4.5859   -4.2078 C.3       1 <0>        -0.1212
     26 C19         8.7152   -3.4281   -3.2781 C.3       1 <0>        -0.0827
     27 C20        -1.2359    4.0656   -1.2019 C.ar      1 <0>        -0.1024
     28 C21        -1.4318    5.4338   -1.1795 C.ar      1 <0>        -0.0928
     29 C22        -1.8937    6.0844   -2.3084 C.ar      1 <0>        -0.1195
     30 C23        -2.1692    5.3655   -3.4565 C.ar      1 <0>        -0.1061
     31 C24        -1.9787    3.9965   -3.4770 C.ar      1 <0>        -0.1178
     32 C25        -1.5118    3.3466   -2.3499 C.ar      1 <0>        -0.0907
     33 H2          0.3551    3.2594    2.5269 H         1 <0>         0.0518
     34 H3         -1.0853    3.7915    3.4272 H         1 <0>         0.0718
     35 H4         -1.1274    2.2747    2.4967 H         1 <0>         0.0624
     36 H5         -0.8269    5.0758    1.3219 H         1 <0>         0.0934
     37 H6         -2.3094    4.0912    1.2917 H         1 <0>         0.0919
     38 H7         -2.0524    1.6069    0.0193 H         1 <0>         0.4423
     39 H8          3.1187    2.1333    0.4986 H         1 <0>         0.1272
     40 H9          2.4729    0.4746    0.4957 H         1 <0>         0.1301
     41 H10         4.7344    0.5518   -0.9680 H         1 <0>         0.4017
     42 H11         5.9937    2.2396   -2.9887 H         1 <0>         0.0603
     43 H12         5.4768    1.8112   -4.6372 H         1 <0>         0.0691
     44 H13         4.3743    2.7046   -3.5627 H         1 <0>         0.0648
     45 H14         6.6169    0.2019   -1.3486 H         1 <0>         0.1201
     46 H15         8.3506   -1.5357   -1.4509 H         1 <0>         0.1231
     47 H16         4.9116   -1.3032   -4.9511 H         1 <0>         0.1229
     48 H17         5.8273   -4.0403   -5.2231 H         1 <0>         0.0772
     49 H18         6.3734   -2.7514   -6.3181 H         1 <0>         0.0754
     50 H19         7.8534   -4.8108   -6.2959 H         1 <0>         0.0689
     51 H20         8.7007   -3.2927   -5.9038 H         1 <0>         0.0659
     52 H21         7.5277   -5.1527   -3.7858 H         1 <0>         0.0658
     53 H22         9.2219   -5.2381   -4.3321 H         1 <0>         0.0688
     54 H23         8.8595   -3.8100   -2.2675 H         1 <0>         0.0749
     55 H24         9.6395   -2.9636   -3.6216 H         1 <0>         0.0768
     56 H25        -1.2205    5.9950   -0.2813 H         1 <0>         0.1297
     57 H26        -2.0429    7.1540   -2.2922 H         1 <0>         0.1283
     58 H27        -2.5336    5.8733   -4.3372 H         1 <0>         0.1259
     59 H28        -2.1942    3.4347   -4.3739 H         1 <0>         0.1261
     60 H29        -1.3630    2.2770   -2.3659 H         1 <0>         0.1232
@<TRIPOS>BOND
     1    1    2 1
     2    1   33 1
     3    1   34 1
     4    1   35 1
     5    2    3 1
     6    2   36 1
     7    2   37 1
     8    3    9 1
     9    3    4 1
    10    3   27 1
    11    4    5 2
    12    4    6 am
    13    6    7 am
    14    6   10 1
    15    7    8 2
    16    7    9 am
    17    9   38 1
    18   10   11 1
    19   10   39 1
    20   10   40 1
    21   11   12 2
    22   11   13 am
    23   13   14 1
    24   13   41 1
    25   14   15 1
    26   14   16 1
    27   14   17 1
    28   16   42 1
    29   16   43 1
    30   16   44 1
    31   17   22 ar
    32   17   18 ar
    33   18   19 ar
    34   18   45 1
    35   19   20 ar
    36   19   46 1
    37   20   26 1
    38   20   21 ar
    39   21   22 ar
    40   21   23 1
    41   22   47 1
    42   23   24 1
    43   23   48 1
    44   23   49 1
    45   24   25 1
    46   24   50 1
    47   24   51 1
    48   25   26 1
    49   25   52 1
    50   25   53 1
    51   26   54 1
    52   26   55 1
    53   27   32 ar
    54   27   28 ar
    55   28   29 ar
    56   28   56 1
    57   29   30 ar
    58   29   57 1
    59   30   31 ar
    60   30   58 1
    61   31   32 ar
    62   31   59 1
    63   32   60 1
@<TRIPOS>MOLECULE
ZINC09496038
   57    60     0     0     0
SMALL
USER_CHARGES
2-[4-(4-chlorophenyl)-4-methyl-2,5-dioxo-imidazolidin-1-yl]-N-(1-tetralin-2-ylethyl)acetamide
@<TRIPOS>ATOM
      1 C1         -2.3308   -3.2262    2.2604 C.3       1 <0>        -0.1583
      2 C2         -2.4644   -2.7586    0.8097 C.3       1 <0>         0.1876
      3 H1         -3.3108   -2.0772    0.7241 H         1 <0>         0.0964
      4 C3         -1.2028   -2.0473    0.3930 C.ar      1 <0>        -0.0953
      5 C4         -0.0881   -2.7744    0.0182 C.ar      1 <0>        -0.1164
      6 C5          1.0635   -2.1162   -0.3600 C.ar      1 <0>        -0.1146
      7 C6          1.1134   -0.7280   -0.3667 C.ar      1 <0>        -0.0727
      8 C7          0.0021   -0.0041    0.0020 C.ar      1 <0>        -0.0696
      9 C8         -1.1564   -0.6688    0.3838 C.ar      1 <0>        -0.1062
     10 C9         -0.0184    1.5021    0.0103 C.3       1 <0>        -0.0833
     11 C10         1.4039    2.0586   -0.0003 C.3       1 <0>        -0.1208
     12 C11         2.1765    1.3900   -1.1436 C.3       1 <0>        -0.1212
     13 C12         2.4071   -0.0746   -0.7772 C.3       1 <0>        -0.0829
     14 N1         -2.6811   -3.9180   -0.0591 N.am      1 <0>        -0.7196
     15 C13        -3.9256   -4.4037   -0.2368 C.2       1 <0>         0.5030
     16 O1         -4.8662   -3.8809    0.3225 O.2       1 <0>        -0.5220
     17 C14        -4.1485   -5.5965   -1.1306 C.3       1 <0>         0.0979
     18 N2         -5.5756   -5.9266   -1.1576 N.am      1 <0>        -0.5592
     19 C15        -6.4539   -5.4172   -2.0438 C.2       1 <0>         0.5422
     20 O2         -6.2212   -4.6284   -2.9345 O.2       1 <0>        -0.4541
     21 C16        -7.7933   -6.0351   -1.6947 C.3       1 <0>         0.1698
     22 N3         -7.4853   -6.9022   -0.5443 N.am      1 <0>        -0.7153
     23 C17        -6.1669   -6.7754   -0.3090 C.2       1 <0>         0.7121
     24 O3         -5.5791   -7.3635    0.5774 O.2       1 <0>        -0.5332
     25 C18        -8.3257   -6.8633   -2.8658 C.3       1 <0>        -0.1452
     26 C19        -8.7837   -4.9683   -1.3044 C.ar      1 <0>        -0.0926
     27 C20        -8.6834   -3.7007   -1.8467 C.ar      1 <0>        -0.0912
     28 C21        -9.5948   -2.7235   -1.4934 C.ar      1 <0>        -0.1036
     29 C22       -10.6008   -3.0111   -0.5883 C.ar      1 <0>        -0.0246
     30 C23       -10.6973   -4.2783   -0.0416 C.ar      1 <0>        -0.1083
     31 C24        -9.7887   -5.2563   -0.3999 C.ar      1 <0>        -0.0827
     32 Cl1       -11.7420   -1.7824   -0.1391 Cl        1 <0>        -0.0629
     33 H2         -2.1696   -2.3635    2.9068 H         1 <0>         0.0692
     34 H3         -3.2433   -3.7406    2.5618 H         1 <0>         0.0653
     35 H4         -1.4844   -3.9076    2.3460 H         1 <0>         0.0606
     36 H5         -0.1188   -3.8540    0.0219 H         1 <0>         0.1202
     37 H6          1.9337   -2.6848   -0.6530 H         1 <0>         0.1232
     38 H7         -2.0277   -0.1017    0.6761 H         1 <0>         0.1229
     39 H8         -0.5506    1.8592   -0.8713 H         1 <0>         0.0771
     40 H9         -0.5336    1.8496    0.9057 H         1 <0>         0.0754
     41 H10         1.3751    3.1368   -0.1579 H         1 <0>         0.0690
     42 H11         1.8912    1.8389    0.9497 H         1 <0>         0.0659
     43 H12         3.1355    1.8897   -1.2800 H         1 <0>         0.0688
     44 H13         1.5965    1.4512   -2.0644 H         1 <0>         0.0658
     45 H14         3.1162   -0.1312    0.0487 H         1 <0>         0.0769
     46 H15         2.8176   -0.6004   -1.6392 H         1 <0>         0.0749
     47 H16        -1.9288   -4.3362   -0.5065 H         1 <0>         0.4019
     48 H17        -3.8106   -5.3622   -2.1401 H         1 <0>         0.1286
     49 H18        -3.5859   -6.4478   -0.7475 H         1 <0>         0.1311
     50 H19        -8.1107   -7.4585   -0.0540 H         1 <0>         0.4417
     51 H20        -7.6132   -7.6524   -3.1063 H         1 <0>         0.0754
     52 H21        -9.2819   -7.3085   -2.5909 H         1 <0>         0.0852
     53 H22        -8.4612   -6.2190   -3.7345 H         1 <0>         0.0888
     54 H23        -7.8953   -3.4751   -2.5499 H         1 <0>         0.1480
     55 H24        -9.5190   -1.7345   -1.9205 H         1 <0>         0.1391
     56 H25       -11.4822   -4.5033    0.6653 H         1 <0>         0.1394
     57 H26        -9.8641   -6.2456    0.0265 H         1 <0>         0.1323
@<TRIPOS>BOND
     1    1    2 1
     2    1   33 1
     3    1   34 1
     4    1   35 1
     5    2    3 1
     6    2    4 1
     7    2   14 1
     8    4    9 ar
     9    4    5 ar
    10    5    6 ar
    11    5   36 1
    12    6    7 ar
    13    6   37 1
    14    7   13 1
    15    7    8 ar
    16    8    9 ar
    17    8   10 1
    18    9   38 1
    19   10   11 1
    20   10   39 1
    21   10   40 1
    22   11   12 1
    23   11   41 1
    24   11   42 1
    25   12   13 1
    26   12   43 1
    27   12   44 1
    28   13   45 1
    29   13   46 1
    30   14   15 am
    31   14   47 1
    32   15   16 2
    33   15   17 1
    34   17   18 1
    35   17   48 1
    36   17   49 1
    37   18   23 am
    38   18   19 am
    39   19   20 2
    40   19   21 1
    41   21   22 1
    42   21   25 1
    43   21   26 1
    44   22   23 am
    45   22   50 1
    46   23   24 2
    47   25   51 1
    48   25   52 1
    49   25   53 1
    50   26   31 ar
    51   26   27 ar
    52   27   28 ar
    53   27   54 1
    54   28   29 ar
    55   28   55 1
    56   29   30 ar
    57   29   32 1
    58   30   31 ar
    59   30   56 1
    60   31   57 1
@<TRIPOS>MOLECULE
ZINC05926193
   58    61     0     0     0
SMALL
USER_CHARGES
(5S)-5-(4-diethylaminophenyl)-2-ethylsulfanyl-3,5,7,8,9,10-hexahydropyrimido[6,5-b]quinoline-4,6-dione
@<TRIPOS>ATOM
      1 C1         -5.0983    0.5288    6.5461 C.3       1 <0>        -0.1732
      2 C2         -3.6256    0.1435    6.3925 C.3       1 <0>         0.1193
      3 N1         -3.4797   -0.7926    5.2750 N.pl3     1 <0>        -0.6296
      4 C3         -3.5790   -2.2352    5.5101 C.3       1 <0>         0.1181
      5 C4         -2.1916   -2.7968    5.8273 C.3       1 <0>        -0.1737
      6 C5         -3.2460   -0.3096    3.9854 C.ar      1 <0>         0.2154
      7 C6         -3.1075   -1.1957    2.9247 C.ar      1 <0>        -0.1973
      8 C7         -2.8760   -0.7148    1.6509 C.ar      1 <0>        -0.0399
      9 C8         -2.7822    0.6472    1.4308 C.ar      1 <0>        -0.1150
     10 C9         -2.9140    1.5319    2.4855 C.ar      1 <0>        -0.0637
     11 C10        -3.1512    1.0580    3.7608 C.ar      1 <0>        -0.2025
     12 C11        -2.5295    1.1682    0.0395 C.3       1 <0>         0.1039
     13 H1         -2.4564    0.3370   -0.6773 H         1 <0>         0.0880
     14 C12        -1.2284    1.9132    0.0182 C.2       1 <0>        -0.2968
     15 C13        -0.0145    1.2166    0.0087 C.2       1 <0>         0.5475
     16 O1          0.0021   -0.0041    0.0020 O.2       1 <0>        -0.5222
     17 N2          1.1376    1.9200    0.0015 N.am      1 <0>        -0.6347
     18 H2          2.1034    1.3935   -0.0108 H         1 <0>         0.4491
     19 C14         1.1072    3.2818    0.0094 C.2       1 <0>         0.3983
     20 N3         -0.0329    3.9423    0.0223 N.2       1 <0>        -0.5651
     21 C15        -1.2043    3.2970    0.0281 C.2       1 <0>         0.4242
     22 N4         -2.3918    4.0017    0.0360 N.pl3     1 <0>        -0.6374
     23 C16        -3.5608    3.4024   -0.3467 C.2       1 <0>         0.2208
     24 C17        -3.6759    2.0579   -0.3701 C.2       1 <0>        -0.2683
     25 C18        -4.8712    1.4410   -0.7804 C.2       1 <0>         0.4005
     26 O2         -4.9447    0.2281   -0.7827 O.2       1 <0>        -0.4632
     27 C19        -6.0602    2.2518   -1.2168 C.3       1 <0>        -0.1708
     28 C20        -5.5704    3.5831   -1.7959 C.3       1 <0>        -0.1107
     29 C21        -4.7194    4.2878   -0.7374 C.3       1 <0>        -0.0961
     30 S1          2.6238    4.1787    0.0028 S.3       1 <0>        -0.0019
     31 C22         1.9872    5.8729    0.0172 C.3       1 <0>        -0.1016
     32 C23         3.1580    6.8578    0.0137 C.3       1 <0>        -0.1479
     33 H3         -5.2078    1.2316    7.3852 H         1 <0>         0.0625
     34 H4         -5.6948   -0.3740    6.7438 H         1 <0>         0.0558
     35 H5         -5.4510    1.0058    5.6198 H         1 <0>         0.0584
     36 H6         -3.0291    1.0463    6.1948 H         1 <0>         0.0729
     37 H7         -3.2728   -0.3335    7.3188 H         1 <0>         0.0712
     38 H8         -4.2534   -2.4228    6.3586 H         1 <0>         0.0714
     39 H9         -3.9767   -2.7269    4.6100 H         1 <0>         0.0759
     40 H10        -2.2661   -3.8800    6.0038 H         1 <0>         0.0636
     41 H11        -1.7940   -2.3051    6.7274 H         1 <0>         0.0544
     42 H12        -1.5173   -2.6091    4.9787 H         1 <0>         0.0593
     43 H13        -3.1810   -2.2596    3.0958 H         1 <0>         0.1189
     44 H14        -2.7679   -1.4033    0.8258 H         1 <0>         0.1191
     45 H15        -2.8354    2.5948    2.3109 H         1 <0>         0.1048
     46 H16        -3.2584    1.7496    4.5833 H         1 <0>         0.1154
     47 H17        -2.4041    5.0552    0.3520 H         1 <0>         0.4445
     48 H18        -6.6205    1.6972   -1.9839 H         1 <0>         0.0971
     49 H19        -6.7125    2.4411   -0.3515 H         1 <0>         0.1004
     50 H20        -4.9680    3.3918   -2.6962 H         1 <0>         0.0744
     51 H21        -6.4358    4.2087   -2.0599 H         1 <0>         0.0873
     52 H22        -5.3370    4.4958    0.1488 H         1 <0>         0.1002
     53 H23        -4.3360    5.2338   -1.1473 H         1 <0>         0.0915
     54 H24         1.3659    6.0387   -0.8753 H         1 <0>         0.1034
     55 H25         1.3797    6.0287    0.9209 H         1 <0>         0.1032
     56 H26         2.7710    7.8874    0.0225 H         1 <0>         0.0841
     57 H27         3.7654    6.7020   -0.8900 H         1 <0>         0.0686
     58 H28         3.7793    6.6920    0.9062 H         1 <0>         0.0686
@<TRIPOS>BOND
     1    1    2 1
     2    1   33 1
     3    1   34 1
     4    1   35 1
     5    2    3 1
     6    2   36 1
     7    2   37 1
     8    3    4 1
     9    3    6 1
    10    4    5 1
    11    4   38 1
    12    4   39 1
    13    5   40 1
    14    5   41 1
    15    5   42 1
    16    6   11 ar
    17    6    7 ar
    18    7    8 ar
    19    7   43 1
    20    8    9 ar
    21    8   44 1
    22    9   10 ar
    23    9   12 1
    24   10   11 ar
    25   10   45 1
    26   11   46 1
    27   12   13 1
    28   12   24 1
    29   12   14 1
    30   14   21 2
    31   14   15 1
    32   15   16 2
    33   15   17 am
    34   17   18 1
    35   17   19 1
    36   19   20 2
    37   19   30 1
    38   20   21 1
    39   21   22 1
    40   22   23 1
    41   22   47 1
    42   23   29 1
    43   23   24 2
    44   24   25 1
    45   25   26 2
    46   25   27 1
    47   27   28 1
    48   27   48 1
    49   27   49 1
    50   28   29 1
    51   28   50 1
    52   28   51 1
    53   29   52 1
    54   29   53 1
    55   30   31 1
    56   31   32 1
    57   31   54 1
    58   31   55 1
    59   32   56 1
    60   32   57 1
    61   32   58 1
@<TRIPOS>MOLECULE
ZINC37426309
   50    52     0     0     0
SMALL
USER_CHARGES

@<TRIPOS>ATOM
      1 C1         -0.1143    1.2559   -0.0589 C.3       1 <0>        -0.1644
      2 C2         -0.1940   -0.2720   -0.0604 C.3       1 <0>         0.1347
      3 C3         -1.6607   -0.7061   -0.0949 C.3       1 <0>        -0.1620
      4 N1          0.4982   -0.7959   -1.2405 N.am      1 <0>        -0.7269
      5 C4          1.8308   -0.9944   -1.2073 C.2       1 <0>         0.5218
      6 O1          2.4570   -0.7393   -0.2004 O.2       1 <0>        -0.5332
      7 C5          2.5429   -1.5333   -2.4212 C.3       1 <0>        -0.1214
      8 H1          2.1374   -2.5125   -2.6760 H         1 <0>         0.1016
      9 C6          4.0381   -1.6620   -2.1212 C.3       1 <0>        -0.1009
     10 C7          4.7572   -2.2400   -3.3422 C.3       1 <0>        -0.1360
     11 C8          4.5825   -1.2890   -4.5304 C.3       1 <0>         0.0721
     12 N2          3.1480   -1.0454   -4.7342 N.am      1 <0>        -0.5912
     13 C9          2.3424   -0.5747   -3.5991 C.3       1 <0>         0.1222
     14 C10         2.5813   -1.2499   -5.9398 C.2       1 <0>         0.5926
     15 O2          1.3732   -1.1795   -6.0639 O.2       1 <0>        -0.5338
     16 C11         3.4241   -1.5583   -7.1063 C.2       1 <0>         0.0333
     17 C12         2.8554   -1.9529   -8.2915 C.2       1 <0>        -0.1486
     18 S1          4.3129   -2.1779   -9.3021 S.3       1 <0>         0.0497
     19 C13         5.5204   -1.7303   -8.0632 C.2       1 <0>         0.3535
     20 N3          4.7523   -1.4531   -7.0289 N.2       1 <0>        -0.5303
     21 N4          6.9013   -1.6821   -8.1650 N.pl3     1 <0>        -0.6090
     22 C14         7.5175   -1.8621   -9.4073 C.ar      1 <0>         0.1747
     23 C15         6.9244   -1.3574  -10.5578 C.ar      1 <0>        -0.1384
     24 C16         7.5348   -1.5358  -11.7835 C.ar      1 <0>        -0.0605
     25 C17         8.7366   -2.2167  -11.8672 C.ar      1 <0>        -0.0473
     26 C18         9.3305   -2.7210  -10.7224 C.ar      1 <0>        -0.0017
     27 C19         8.7262   -2.5405   -9.4923 C.ar      1 <0>        -0.1213
     28 Cl1        10.8379   -3.5752  -10.8313 Cl        1 <0>        -0.0324
     29 Cl2         9.5007   -2.4395  -13.4100 Cl        1 <0>        -0.0380
     30 H2          0.9307    1.5652   -0.0343 H         1 <0>         0.0600
     31 H3         -0.5873    1.6454   -0.9603 H         1 <0>         0.0574
     32 H4         -0.6293    1.6458    0.8191 H         1 <0>         0.0665
     33 H5          0.2791   -0.6614    0.8410 H         1 <0>         0.0881
     34 H6         -2.1338   -0.3166   -0.9964 H         1 <0>         0.0621
     35 H7         -1.7176   -1.7946   -0.0960 H         1 <0>         0.0618
     36 H8         -2.1757   -0.3162    0.7831 H         1 <0>         0.0738
     37 H9         -0.0026   -0.9999   -2.0458 H         1 <0>         0.4012
     38 H10         4.4480   -0.6788   -1.8901 H         1 <0>         0.0724
     39 H11         4.1815   -2.3247   -1.2678 H         1 <0>         0.0737
     40 H12         5.8182   -2.3532   -3.1197 H         1 <0>         0.0795
     41 H13         4.3310   -3.2125   -3.5888 H         1 <0>         0.0642
     42 H14         5.0871   -0.3458   -4.3207 H         1 <0>         0.0643
     43 H15         5.0072   -1.7417   -5.4263 H         1 <0>         0.1499
     44 H16         1.2895   -0.5564   -3.8803 H         1 <0>         0.0970
     45 H17         2.6640    0.4270   -3.3139 H         1 <0>         0.0749
     46 H18         1.8143   -2.0900   -8.5439 H         1 <0>         0.2115
     47 H19         7.4407   -1.5236   -7.3746 H         1 <0>         0.4318
     48 H20         5.9862   -0.8262  -10.4936 H         1 <0>         0.1455
     49 H21         7.0735   -1.1438  -12.6779 H         1 <0>         0.1534
     50 H22         9.1914   -2.9303   -8.5990 H         1 <0>         0.1524
@<TRIPOS>BOND
     1    1    2 1
     2    1   30 1
     3    1   31 1
     4    1   32 1
     5    2    3 1
     6    2    4 1
     7    2   33 1
     8    3   34 1
     9    3   35 1
    10    3   36 1
    11    4    5 am
    12    4   37 1
    13    5    6 2
    14    5    7 1
    15    7    8 1
    16    7   13 1
    17    7    9 1
    18    9   10 1
    19    9   38 1
    20    9   39 1
    21   10   11 1
    22   10   40 1
    23   10   41 1
    24   11   12 1
    25   11   42 1
    26   11   43 1
    27   12   13 1
    28   12   14 am
    29   13   44 1
    30   13   45 1
    31   14   15 2
    32   14   16 1
    33   16   20 1
    34   16   17 2
    35   17   18 1
    36   17   46 1
    37   18   19 1
    38   19   20 2
    39   19   21 1
    40   21   22 1
    41   21   47 1
    42   22   27 ar
    43   22   23 ar
    44   23   24 ar
    45   23   48 1
    46   24   25 ar
    47   24   49 1
    48   25   26 ar
    49   25   29 1
    50   26   27 ar
    51   26   28 1
    52   27   50 1
@<TRIPOS>MOLECULE
ZINC62038868
   50    53     0     0     0
SMALL
USER_CHARGES

@<TRIPOS>ATOM
      1 C1          0.0278    1.5195    0.0200 C.3       1 <0>        -0.1480
      2 C2          0.0483   -0.0103    0.0097 C.3       1 <0>        -0.0870
      3 H1         -0.9734   -0.3899    0.0251 H         1 <0>         0.0786
      4 C3          0.7619   -0.5063   -1.2514 C.3       1 <0>        -0.1143
      5 C4          0.5713   -2.0162   -1.3949 C.3       1 <0>        -0.0663
      6 C5          0.9948   -2.6944   -0.0945 C.2       1 <0>        -0.0921
      7 C6          1.0860   -1.9838    1.0527 C.2       1 <0>        -0.1312
      8 S1          1.6007   -3.1520    2.2867 S.3       1 <0>         0.1254
      9 C7          1.6941   -4.5882    1.2675 C.ar      1 <0>         0.1148
     10 C8          1.3179   -4.1089   -0.0127 C.ar      1 <0>        -0.1655
     11 C9          1.2977   -5.0591   -1.0748 C.ar      1 <0>         0.1970
     12 N1          1.6375   -6.3048   -0.7455 N.ar      1 <0>        -0.5427
     13 C10         1.9771   -6.6777    0.4717 C.ar      1 <0>         0.3217
     14 N2          2.0164   -5.8442    1.5048 N.ar      1 <0>        -0.4616
     15 S2          0.8518   -4.6143   -2.7204 S.3       1 <0>         0.0721
     16 C11         0.9905   -6.1673   -3.6476 C.3       1 <0>        -0.1287
     17 H2          0.3777   -6.9317   -3.1698 H         1 <0>         0.1244
     18 C12         2.4513   -6.6221   -3.6650 C.3       1 <0>        -0.1436
     19 C13         0.5143   -5.9526   -5.0611 C.2       1 <0>         0.5388
     20 O1          0.5514   -4.8440   -5.5519 O.2       1 <0>        -0.5030
     21 N3          0.0471   -6.9925   -5.7801 N.am      1 <0>        -0.6595
     22 C14        -0.4827   -6.7780   -7.0597 C.ar      1 <0>         0.1040
     23 C15         0.0534   -5.7990   -7.8744 C.ar      1 <0>        -0.0558
     24 C16        -0.4791   -5.5882   -9.1519 C.ar      1 <0>        -0.1830
     25 C17        -1.5518   -6.3705   -9.5970 C.ar      1 <0>        -0.0539
     26 C18        -2.0801   -7.3439   -8.7792 C.ar      1 <0>        -0.1396
     27 C19        -1.5485   -7.5573   -7.5138 C.ar      1 <0>         0.1189
     28 O2         -2.0701   -8.5223   -6.7144 O.3       1 <0>        -0.4928
     29 C20         0.0855   -4.5490  -10.0227 C.2       1 <0>         0.3849
     30 O3         -0.3770   -4.3678  -11.1292 O.2       1 <0>        -0.4558
     31 C21         0.8071   -0.5236    1.2416 C.3       1 <0>        -0.0389
     32 H3          1.0503    1.8967    0.0046 H         1 <0>         0.0583
     33 H4         -0.5063    1.8816   -0.8585 H         1 <0>         0.0610
     34 H5         -0.4753    1.8701    0.9211 H         1 <0>         0.0587
     35 H6          0.3455   -0.0039   -2.1245 H         1 <0>         0.0768
     36 H7          1.8258   -0.2807   -1.1780 H         1 <0>         0.0694
     37 H8         -0.4776   -2.2343   -1.5955 H         1 <0>         0.0860
     38 H9          1.1860   -2.3852   -2.2160 H         1 <0>         0.0878
     39 H10         2.2362   -7.7130    0.6377 H         1 <0>         0.2064
     40 H11         3.0641   -5.8577   -4.1428 H         1 <0>         0.0726
     41 H12         2.7957   -6.7773   -2.6426 H         1 <0>         0.0899
     42 H13         2.5346   -7.5552   -4.2222 H         1 <0>         0.0722
     43 H14         0.0775   -7.8894   -5.4118 H         1 <0>         0.4196
     44 H15         0.8804   -5.1979   -7.5265 H         1 <0>         0.1545
     45 H16        -1.9649   -6.2100  -10.5819 H         1 <0>         0.1414
     46 H17        -2.9075   -7.9463   -9.1242 H         1 <0>         0.1421
     47 H18        -2.7920   -8.2163   -6.1483 H         1 <0>         0.3965
     48 H19         0.9126   -3.9462   -9.6778 H         1 <0>         0.1095
     49 H20         1.7482    0.0168    1.3435 H         1 <0>         0.0915
     50 H21         0.1986   -0.3765    2.1340 H         1 <0>         0.0886
@<TRIPOS>BOND
     1    1    2 1
     2    1   32 1
     3    1   33 1
     4    1   34 1
     5    2    3 1
     6    2   31 1
     7    2    4 1
     8    4    5 1
     9    4   35 1
    10    4   36 1
    11    5    6 1
    12    5   37 1
    13    5   38 1
    14    6   10 1
    15    6    7 2
    16    7    8 1
    17    7   31 1
    18    8    9 1
    19    9   14 ar
    20    9   10 ar
    21   10   11 ar
    22   11   12 ar
    23   11   15 1
    24   12   13 ar
    25   13   14 ar
    26   13   39 1
    27   15   16 1
    28   16   17 1
    29   16   18 1
    30   16   19 1
    31   18   40 1
    32   18   41 1
    33   18   42 1
    34   19   20 2
    35   19   21 am
    36   21   22 1
    37   21   43 1
    38   22   27 ar
    39   22   23 ar
    40   23   24 ar
    41   23   44 1
    42   24   25 ar
    43   24   29 1
    44   25   26 ar
    45   25   45 1
    46   26   27 ar
    47   26   46 1
    48   27   28 1
    49   28   47 1
    50   29   30 2
    51   29   48 1
    52   31   49 1
    53   31   50 1
@<TRIPOS>MOLECULE
ZINC09467962
   67    70     0     0     0
SMALL
USER_CHARGES
4-[(2,3-dimethylphenyl)sulfamoyl]-N-[2-(5-methyl-2-furyl)-2-morpholino-ethyl]-benzamide
@<TRIPOS>ATOM
      1 C1         -0.2475    3.5048    5.8010 C.3       1 <0>        -0.1213
      2 C2         -0.3841    3.8221    4.3342 C.ar      1 <0>        -0.0609
      3 C3          0.2729    4.9157    3.7999 C.ar      1 <0>        -0.1292
      4 C4          0.1507    5.2101    2.4545 C.ar      1 <0>        -0.0922
      5 C5         -0.6281    4.4122    1.6393 C.ar      1 <0>        -0.1790
      6 C6         -1.2892    3.3132    2.1725 C.ar      1 <0>         0.1516
      7 C7         -1.1688    3.0235    3.5260 C.ar      1 <0>        -0.0999
      8 C8         -1.8892    1.8358    4.1102 C.3       1 <0>        -0.1189
      9 N1         -2.0779    2.5045    1.3511 N.pl3     1 <0>        -1.0495
     10 S1         -1.6218    2.2206   -0.2153 S.o2      1 <0>         2.6877
     11 O1         -1.4249    3.4924   -0.8178 O.2       1 <0>        -0.9380
     12 O2         -2.5336    1.2635   -0.7367 O.2       1 <0>        -0.9379
     13 C9         -0.0441    1.4377   -0.1647 C.ar      1 <0>        -0.6459
     14 C10         1.1068    2.2052   -0.1898 C.ar      1 <0>        -0.0180
     15 C11         2.3452    1.5983   -0.1561 C.ar      1 <0>        -0.1117
     16 C12         2.4356    0.2067   -0.0967 C.ar      1 <0>        -0.0888
     17 C13         1.2707   -0.5617   -0.0718 C.ar      1 <0>        -0.0731
     18 C14         0.0385    0.0578   -0.1059 C.ar      1 <0>        -0.0150
     19 C15         3.7594   -0.4504   -0.0600 C.2       1 <0>         0.5670
     20 O3          3.8351   -1.6625   -0.0079 O.2       1 <0>        -0.4942
     21 N2          4.8824    0.2944   -0.0842 N.am      1 <0>        -0.7504
     22 C16         6.1942   -0.3568   -0.0478 C.3       1 <0>         0.0958
     23 C17         7.2930    0.7072   -0.0858 C.3       1 <0>         0.1306
     24 H1          7.2456    1.3110    0.8204 H         1 <0>         0.1680
     25 C18         8.6395    0.0360   -0.1722 C.2       1 <0>        -0.1100
     26 C19         9.5370   -0.0582    0.8253 C.2       1 <0>        -0.1144
     27 C20        10.6488   -0.7639    0.3107 C.2       1 <0>        -0.2161
     28 C21        10.3677   -1.0515   -0.9730 C.2       1 <0>         0.0463
     29 O4          9.1494   -0.5646   -1.2600 O.3       1 <0>        -0.1767
     30 C22        11.2674   -1.7937   -1.9273 C.3       1 <0>        -0.0903
     31 C23         7.0559    0.7746   -2.4955 C.3       1 <0>        -0.0538
     32 C24         6.7937    1.7034   -3.6839 C.3       1 <0>         0.0393
     33 O5          7.8052    2.7137   -3.7251 O.3       1 <0>        -0.3526
     34 C25         7.8751    3.5071   -2.5373 C.3       1 <0>         0.0366
     35 C26         8.1482    2.5966   -1.3372 C.3       1 <0>        -0.0385
     36 H2         -1.0310    4.0182    6.3583 H         1 <0>         0.0767
     37 H3         -0.3408    2.4291    5.9503 H         1 <0>         0.0707
     38 H4          0.7281    3.8375    6.1555 H         1 <0>         0.0693
     39 H5          0.8825    5.5412    4.4351 H         1 <0>         0.1263
     40 H6          0.6650    6.0648    2.0405 H         1 <0>         0.1304
     41 H7         -0.7226    4.6423    0.5883 H         1 <0>         0.1592
     42 H8         -1.2474    0.9567    4.0517 H         1 <0>         0.0734
     43 H9         -2.1355    2.0370    5.1528 H         1 <0>         0.0766
     44 H10        -2.8057    1.6545    3.5488 H         1 <0>         0.0652
     45 H11        -2.8929    2.1091    1.6982 H         1 <0>         0.4301
     46 H12         1.0355    3.2819   -0.2358 H         1 <0>         0.1517
     47 H13         3.2429    2.1986   -0.1754 H         1 <0>         0.1285
     48 H14         1.3338   -1.6389   -0.0262 H         1 <0>         0.1525
     49 H15        -0.8637   -0.5356   -0.0862 H         1 <0>         0.1554
     50 H16         4.8221    1.2616   -0.1258 H         1 <0>         0.3936
     51 H17         6.2850   -0.9402    0.8685 H         1 <0>         0.1242
     52 H18         6.2968   -1.0159   -0.9099 H         1 <0>         0.1041
     53 H19         9.4282    0.3288    1.8277 H         1 <0>         0.1633
     54 H20        11.5520   -1.0197    0.8446 H         1 <0>         0.1648
     55 H21        10.7772   -1.8786   -2.8971 H         1 <0>         0.0830
     56 H22        12.2050   -1.2494   -2.0404 H         1 <0>         0.0996
     57 H23        11.4708   -2.7899   -1.5345 H         1 <0>         0.1007
     58 H24         8.0097    0.2657   -2.6347 H         1 <0>         0.1543
     59 H25         6.2560    0.0375   -2.4262 H         1 <0>         0.1404
     60 H26         5.8159    2.1717   -3.5711 H         1 <0>         0.0812
     61 H27         6.8169    1.1273   -4.6089 H         1 <0>         0.1438
     62 H28         6.9287    4.0278   -2.3912 H         1 <0>         0.0823
     63 H29         8.6804    4.2355   -2.6322 H         1 <0>         0.1444
     64 H30         8.1456    3.1894   -0.4225 H         1 <0>         0.1437
     65 H31         9.1195    2.1168   -1.4572 H         1 <0>         0.1418
     66 N3          7.0759    1.5828   -1.2578 N.4       1 <0>        -0.3980
     67 H32         6.1723    2.0595   -1.1554 H         1 <0>         0.4206
@<TRIPOS>BOND
     1    1    2 1
     2    1   36 1
     3    1   37 1
     4    1   38 1
     5    2    7 ar
     6    2    3 ar
     7    3    4 ar
     8    3   39 1
     9    4    5 ar
    10    4   40 1
    11    5    6 ar
    12    5   41 1
    13    6    7 ar
    14    6    9 1
    15    7    8 1
    16    8   42 1
    17    8   43 1
    18    8   44 1
    19    9   10 1
    20    9   45 1
    21   10   11 2
    22   10   12 2
    23   10   13 1
    24   13   18 ar
    25   13   14 ar
    26   14   15 ar
    27   14   46 1
    28   15   16 ar
    29   15   47 1
    30   16   17 ar
    31   16   19 1
    32   17   18 ar
    33   17   48 1
    34   18   49 1
    35   19   20 2
    36   19   21 am
    37   21   22 1
    38   21   50 1
    39   22   23 1
    40   22   51 1
    41   22   52 1
    42   23   24 1
    43   23   25 1
    44   23   66 1
    45   25   29 1
    46   25   26 2
    47   26   27 1
    48   26   53 1
    49   27   28 2
    50   27   54 1
    51   28   29 1
    52   28   30 1
    53   30   55 1
    54   30   56 1
    55   30   57 1
    56   31   32 1
    57   31   58 1
    58   31   59 1
    59   31   66 1
    60   32   33 1
    61   32   60 1
    62   32   61 1
    63   33   34 1
    64   34   35 1
    65   34   62 1
    66   34   63 1
    67   35   64 1
    68   35   65 1
    69   35   66 1
    70   66   67 1
@<TRIPOS>MOLECULE
ZINC20154387
   54    57     0     0     0
SMALL
USER_CHARGES
(E)-3-[5-(2,4-dichlorophenyl)-2-furyl]-N-(3-nitro-4-piperazin-1-yl-phenyl)prop-2-enamide
@<TRIPOS>ATOM
      1 C1         -2.3824    0.0463    0.2195 C.ar      1 <0>        -0.0670
      2 C2         -3.5996   -0.5977    0.3216 C.ar      1 <0>        -0.1222
      3 C3         -3.6539   -1.9853    0.3111 C.ar      1 <0>         0.1065
      4 C4         -2.4844   -2.7252    0.1921 C.ar      1 <0>         0.0086
      5 C5         -1.2682   -2.0813    0.0843 C.ar      1 <0>        -0.0857
      6 C6         -1.2138   -0.6934    0.0953 C.ar      1 <0>         0.1839
      7 N1          0.0202   -0.0401   -0.0132 N.am      1 <0>        -0.6866
      8 C7          0.1017    1.1448   -0.6502 C.2       1 <0>         0.5661
      9 O1         -0.8759    1.6005   -1.2163 O.2       1 <0>        -0.5309
     10 C8          1.3235    1.8562   -0.6664 C.2       1 <0>        -0.2421
     11 C9          1.4057    3.0503   -1.3084 C.2       1 <0>         0.0467
     12 C10         2.6269    3.7614   -1.3245 C.2       1 <0>        -0.0245
     13 C11         2.8465    4.9807   -1.9377 C.2       1 <0>        -0.1361
     14 C12         4.1833    5.3145   -1.7063 C.2       1 <0>        -0.1841
     15 C13         4.7303    4.2925   -0.9637 C.2       1 <0>         0.0558
     16 O2          3.7781    3.3697   -0.7391 O.3       1 <0>        -0.1441
     17 C14         6.1257    4.2238   -0.4889 C.ar      1 <0>        -0.0215
     18 C15         7.1813    4.4339   -1.3799 C.ar      1 <0>        -0.0628
     19 C16         8.4826    4.3740   -0.9288 C.ar      1 <0>        -0.1027
     20 C17         8.7461    4.0949    0.4025 C.ar      1 <0>        -0.0105
     21 C18         7.7057    3.8799    1.2903 C.ar      1 <0>        -0.1025
     22 C19         6.3977    3.9425    0.8533 C.ar      1 <0>        -0.0038
     23 Cl1         5.0940    3.6722    1.9674 Cl        1 <0>        -0.0408
     24 Cl2        10.3882    4.0150    0.9600 Cl        1 <0>        -0.0415
     25 N2         -2.5423   -4.2043    0.1804 N.pl3     1 <0>         0.0276
     26 O3         -1.5121   -4.8541    0.1755 O.2       1 <0>        -0.1742
     27 O4         -3.6201   -4.7716    0.1757 O.3       1 <0>        -0.1122
     28 N3         -4.8866   -2.6379    0.4208 N.pl3     1 <0>        -0.4883
     29 C20        -5.5687   -2.2687    1.6690 C.3       1 <0>         0.0262
     30 C21        -6.8721   -3.0619    1.7888 C.3       1 <0>         0.0047
     31 N4         -7.7227   -2.7802    0.6240 N.4       1 <0>        -0.5377
     32 C22        -7.0406   -3.1494   -0.6243 C.3       1 <0>         0.0025
     33 C23        -5.7371   -2.3562   -0.7440 C.3       1 <0>         0.0296
     34 H1         -2.3396    1.1254    0.2322 H         1 <0>         0.1582
     35 H2         -4.5088   -0.0223    0.4141 H         1 <0>         0.1453
     36 H3         -0.3589   -2.6566   -0.0082 H         1 <0>         0.1649
     37 H4          0.9230   -0.4941    0.4215 H         1 <0>         0.4499
     38 H5          2.2075    1.4425   -0.1590 H         1 <0>         0.1402
     39 H6          0.5217    3.4639   -1.8158 H         1 <0>         0.1681
     40 H7          2.1237    5.5633   -2.4895 H         1 <0>         0.1649
     41 H8          4.6912    6.2051   -2.0458 H         1 <0>         0.1630
     42 H9          6.9780    4.6468   -2.4190 H         1 <0>         0.1516
     43 H10         9.2990    4.5407   -1.6159 H         1 <0>         0.1516
     44 H11         7.9179    3.6624    2.3267 H         1 <0>         0.1525
     45 H12        -4.9176   -2.5000    2.5249 H         1 <0>         0.1220
     46 H13        -5.7932   -1.1919    1.6595 H         1 <0>         0.0666
     47 H14        -6.6446   -4.1375    1.8264 H         1 <0>         0.1435
     48 H15        -7.3982   -2.7660    2.7084 H         1 <0>         0.1407
     49 H16        -8.6549   -3.3588    0.7023 H         1 <0>         0.4597
     50 H17        -6.8162   -4.2262   -0.6148 H         1 <0>         0.1447
     51 H18        -7.6917   -2.9181   -1.4802 H         1 <0>         0.1412
     52 H19        -5.9635   -1.2804   -0.7811 H         1 <0>         0.0663
     53 H20        -5.2099   -2.6518   -1.6631 H         1 <0>         0.1226
     54 H21        -7.9591   -1.7063    0.5937 H         1 <0>         0.4460
@<TRIPOS>BOND
     1    1    6 ar
     2    1    2 ar
     3    1   34 1
     4    2    3 ar
     5    2   35 1
     6    3    4 ar
     7    3   28 1
     8    4    5 ar
     9    4   25 1
    10    5    6 ar
    11    5   36 1
    12    6    7 1
    13    7    8 am
    14    7   37 1
    15    8    9 2
    16    8   10 1
    17   10   11 2
    18   10   38 1
    19   11   12 1
    20   11   39 1
    21   12   16 1
    22   12   13 2
    23   13   14 1
    24   13   40 1
    25   14   15 2
    26   14   41 1
    27   15   16 1
    28   15   17 1
    29   17   22 ar
    30   17   18 ar
    31   18   19 ar
    32   18   42 1
    33   19   20 ar
    34   19   43 1
    35   20   21 ar
    36   20   24 1
    37   21   22 ar
    38   21   44 1
    39   22   23 1
    40   25   26 2
    41   25   27 1
    42   28   33 1
    43   28   29 1
    44   29   30 1
    45   29   45 1
    46   29   46 1
    47   30   31 1
    48   30   47 1
    49   30   48 1
    50   31   32 1
    51   31   49 1
    52   31   54 1
    53   32   33 1
    54   32   50 1
    55   32   51 1
    56   33   52 1
    57   33   53 1
@<TRIPOS>MOLECULE
ZINC39468300
   60    64     0     0     0
SMALL
USER_CHARGES

@<TRIPOS>ATOM
      1 C1         -0.7106    1.4161   -0.1722 C.3       1 <0>        -0.0277
      2 S1         -0.5998   -0.3938   -0.2210 S.3       1 <0>        -0.6880
      3 P1          0.5496   -0.7907   -1.9576 P.3       1 <0>         2.2230
      4 O1          1.9012   -0.2029   -1.8228 O.2       1 <0>        -0.8904
      5 N1          0.6522   -2.4173   -2.2169 N.pl3     1 <0>        -0.9998
      6 N2          0.9765   -2.8471   -3.4862 N.4       1 <0>        -0.1482
      7 C2          0.8841   -4.3156   -3.4550 C.3       1 <0>        -0.0112
      8 C3          1.2421   -4.9131   -4.8092 C.3       1 <0>        -0.0838
      9 H1          1.1518   -5.9982   -4.7595 H         1 <0>         0.1594
     10 C4          2.6516   -4.5481   -5.1902 C.2       1 <0>        -0.0615
     11 C5          3.0150   -4.5743   -6.4678 C.2       1 <0>        -0.6283
     12 C6          2.0294   -4.9744   -7.4958 C.2       1 <0>         0.0177
     13 C7          0.7173   -4.8847   -7.2255 C.2       1 <0>        -0.1286
     14 C8          0.2819   -4.3735   -5.8736 C.3       1 <0>        -0.0546
     15 H2         -0.7337   -4.7106   -5.6664 H         1 <0>         0.1207
     16 C9          0.3557   -2.8459   -5.8659 C.3       1 <0>        -0.1378
     17 C10         0.0398   -2.2981   -4.4693 C.3       1 <0>        -0.0495
     18 H3         -0.9778   -2.5746   -4.1936 H         1 <0>         0.1704
     19 C11         0.1427   -0.7694   -4.5513 C.3       1 <0>         0.0743
     20 O2         -0.1959   -0.1954   -3.2762 O.3       1 <0>        -0.6700
     21 C12         2.4874   -5.4708   -8.8161 C.ar      1 <0>        -0.1176
     22 C13         2.9944   -4.5811   -9.7608 C.ar      1 <0>        -0.0177
     23 C14         3.4198   -5.0480  -10.9877 C.ar      1 <0>        -0.1258
     24 C15         3.3443   -6.3978  -11.2841 C.ar      1 <0>        -0.0812
     25 C16         2.8427   -7.2889  -10.3547 C.ar      1 <0>        -0.1537
     26 C17         2.4178   -6.8347   -9.1163 C.ar      1 <0>         0.1343
     27 O3          1.9298   -7.7105   -8.1997 O.3       1 <0>        -0.4932
     28 S2          4.6567   -4.1355   -6.9339 S.o2      1 <0>         2.6507
     29 O4          4.7931   -4.4740   -8.3072 O.2       1 <0>        -0.9122
     30 O5          4.8786   -2.8187   -6.4481 O.2       1 <0>        -0.9262
     31 O6          5.6017   -5.0478   -6.1651 O.3       1 <0>        -0.6567
     32 C18         5.6580   -6.3175   -6.6465 C.ar      1 <0>         0.0533
     33 C19         4.7239   -7.2579   -6.2369 C.ar      1 <0>        -0.1151
     34 C20         4.7829   -8.5477   -6.7281 C.ar      1 <0>        -0.0846
     35 C21         5.7722   -8.9018   -7.6268 C.ar      1 <0>        -0.0916
     36 C22         6.7046   -7.9665   -8.0362 C.ar      1 <0>        -0.0970
     37 C23         6.6461   -6.6738   -7.5527 C.ar      1 <0>        -0.0865
     38 H4          0.2915    1.8399   -0.1071 H         1 <0>         0.1067
     39 H5         -1.1986    1.7748   -1.0785 H         1 <0>         0.1001
     40 H6         -1.2914    1.7212    0.6982 H         1 <0>         0.1337
     41 H7          0.4901   -3.0501   -1.4998 H         1 <0>         0.4626
     42 H8          1.5697   -4.7016   -2.7007 H         1 <0>         0.1544
     43 H9         -0.1339   -4.6048   -3.1938 H         1 <0>         0.1553
     44 H10         3.3639   -4.2660   -4.4289 H         1 <0>         0.1461
     45 H11        -0.0130   -5.1663   -7.9696 H         1 <0>         0.1449
     46 H12         1.3586   -2.5331   -6.1563 H         1 <0>         0.1043
     47 H13        -0.3653   -2.4476   -6.5798 H         1 <0>         0.1410
     48 H14         1.1615   -0.4878   -4.8173 H         1 <0>         0.1128
     49 H15        -0.5462   -0.3993   -5.3106 H         1 <0>         0.1700
     50 H16         3.0541   -3.5270   -9.5333 H         1 <0>         0.1170
     51 H17         3.8126   -4.3576  -11.7194 H         1 <0>         0.1275
     52 H18         3.6787   -6.7562  -12.2465 H         1 <0>         0.1278
     53 H19         2.7857   -8.3410  -10.5921 H         1 <0>         0.1290
     54 H20         0.9749   -7.8509   -8.2594 H         1 <0>         0.3853
     55 H21         3.9514   -6.9819   -5.5344 H         1 <0>         0.1264
     56 H22         4.0560   -9.2801   -6.4096 H         1 <0>         0.1377
     57 H23         5.8169   -9.9108   -8.0094 H         1 <0>         0.1369
     58 H24         7.4766   -8.2457   -8.7380 H         1 <0>         0.1417
     59 H25         7.3720   -5.9424   -7.8761 H         1 <0>         0.1398
     60 H26         1.9162   -2.5582   -3.7135 H         1 <0>         0.4335
@<TRIPOS>BOND
     1    1    2 1
     2    1   38 1
     3    1   39 1
     4    1   40 1
     5    2    3 1
     6    3   20 1
     7    3    4 2
     8    3    5 1
     9    5    6 1
    10    5   41 1
    11    6   17 1
    12    6    7 1
    13    6   60 1
    14    7    8 1
    15    7   42 1
    16    7   43 1
    17    8    9 1
    18    8   14 1
    19    8   10 1
    20   10   11 2
    21   10   44 1
    22   11   12 1
    23   11   28 1
    24   12   13 2
    25   12   21 1
    26   13   14 1
    27   13   45 1
    28   14   15 1
    29   14   16 1
    30   16   17 1
    31   16   46 1
    32   16   47 1
    33   17   18 1
    34   17   19 1
    35   19   20 1
    36   19   48 1
    37   19   49 1
    38   21   26 ar
    39   21   22 ar
    40   22   23 ar
    41   22   50 1
    42   23   24 ar
    43   23   51 1
    44   24   25 ar
    45   24   52 1
    46   25   26 ar
    47   25   53 1
    48   26   27 1
    49   27   54 1
    50   28   29 2
    51   28   30 2
    52   28   31 1
    53   31   32 1
    54   32   37 ar
    55   32   33 ar
    56   33   34 ar
    57   33   55 1
    58   34   35 ar
    59   34   56 1
    60   35   36 ar
    61   35   57 1
    62   36   37 ar
    63   36   58 1
    64   37   59 1
@<TRIPOS>MOLECULE
ZINC39694187
   71    76     0     0     0
SMALL
USER_CHARGES

@<TRIPOS>ATOM
      1 C1          2.8083  -12.5321   -0.3559 C.ar      1 <0>        -0.1234
      2 C2          2.7038  -12.9864   -1.6592 C.ar      1 <0>        -0.0720
      3 C3          2.3481  -12.1184   -2.6751 C.ar      1 <0>        -0.1542
      4 C4          2.0941  -10.7889   -2.3944 C.ar      1 <0>         0.1157
      5 C5          2.1982  -10.3242   -1.0794 C.ar      1 <0>        -0.0660
      6 C6          2.5581  -11.2086   -0.0602 C.ar      1 <0>        -0.0598
      7 C7          1.9293   -8.9058   -0.7703 C.2       1 <0>         0.0477
      8 C8          1.0307   -8.4482    0.1508 C.2       1 <0>        -0.1811
      9 C9          1.0921   -7.0514    0.1264 C.2       1 <0>        -0.1012
     10 C10         2.0355   -6.7113   -0.8185 C.2       1 <0>        -0.0768
     11 O1          2.5321   -7.8512   -1.3443 O.3       1 <0>        -0.1613
     12 C11         2.4340   -5.3502   -1.1849 C.2       1 <0>         0.6316
     13 O2          1.9861   -4.3990   -0.5715 O.2       1 <0>        -0.4920
     14 N1          3.2966   -5.1511   -2.2011 N.am      1 <0>        -0.6132
     15 C12         3.8924   -3.8702   -2.6490 C.3       1 <0>         0.1223
     16 C13         5.3532   -4.2236   -3.0078 C.3       1 <0>        -0.1143
     17 H1          5.6759   -3.6601   -3.8833 H         1 <0>         0.1200
     18 C14         5.3275   -5.7292   -3.3197 C.3       1 <0>        -0.0719
     19 C15         3.8688   -6.1648   -3.1192 C.3       1 <0>         0.0975
     20 C16         6.2347   -6.4847   -2.3533 C.3       1 <0>        -0.1469
     21 C17         6.2369   -7.9716   -2.7193 C.3       1 <0>        -0.0102
     22 N2          6.7116   -8.1371   -4.0985 N.4       1 <0>        -0.5040
     23 C18         5.7825   -7.4856   -5.0296 C.3       1 <0>        -0.0112
     24 C19         5.7608   -5.9782   -4.7611 C.3       1 <0>        -0.1338
     25 C20         6.2630   -3.9428   -1.8397 C.2       1 <0>         0.5145
     26 O3          5.8204   -3.9513   -0.7106 O.2       1 <0>        -0.5094
     27 N3          7.5686   -3.6821   -2.0498 N.am      1 <0>        -0.7273
     28 C21         8.4753   -3.5182   -0.9109 C.3       1 <0>         0.1609
     29 C22         9.8398   -3.1166   -1.4089 C.ar      1 <0>        -0.0842
     30 C23        10.7374   -4.0847   -1.8208 C.ar      1 <0>        -0.1233
     31 C24        11.9899   -3.7201   -2.2787 C.ar      1 <0>        -0.0874
     32 C25        12.3485   -2.3869   -2.3257 C.ar      1 <0>        -0.1322
     33 C26        11.4498   -1.4129   -1.9129 C.ar      1 <0>         0.1543
     34 C27        10.1906   -1.7818   -1.4589 C.ar      1 <0>        -0.1234
     35 N4         11.8111   -0.0590   -1.9590 N.pl3     1 <0>        -0.4043
     36 C28        11.0229    0.9889   -1.5773 C.2       1 <0>        -0.0195
     37 C29        11.7169    2.1293   -1.7678 C.2       1 <0>        -0.1810
     38 C30        12.9790    1.7749   -2.2856 C.2       1 <0>        -0.1817
     39 C31        13.0118    0.4306   -2.3874 C.2       1 <0>        -0.0178
     40 F1          1.7470   -9.9409   -3.3872 F         1 <0>        -0.1325
     41 H2          3.0824  -13.2173    0.4327 H         1 <0>         0.1423
     42 H3          2.9015  -14.0241   -1.8839 H         1 <0>         0.1421
     43 H4          2.2688  -12.4797   -3.6898 H         1 <0>         0.1435
     44 H5          2.6400  -10.8568    0.9576 H         1 <0>         0.1426
     45 H6          0.3926   -9.0515    0.7794 H         1 <0>         0.1650
     46 H7          0.5116   -6.3705    0.7311 H         1 <0>         0.1693
     47 H8          3.3665   -3.4925   -3.5258 H         1 <0>         0.0918
     48 H9          3.8658   -3.1365   -1.8434 H         1 <0>         0.1045
     49 H10         3.8272   -7.1552   -2.6660 H         1 <0>         0.0965
     50 H11         3.3380   -6.1586   -4.0713 H         1 <0>         0.0885
     51 H12         7.2488   -6.0912   -2.4233 H         1 <0>         0.0983
     52 H13         5.8653   -6.3610   -1.3353 H         1 <0>         0.1218
     53 H14         6.8973   -8.5116   -2.0408 H         1 <0>         0.1390
     54 H15         5.2253   -8.3682   -2.6334 H         1 <0>         0.1324
     55 H16         7.6257   -7.7198   -4.1905 H         1 <0>         0.4278
     56 H17         6.1080   -7.6674   -6.0539 H         1 <0>         0.1417
     57 H18         4.7817   -7.8939   -4.8890 H         1 <0>         0.1328
     58 H19         5.0571   -5.4976   -5.4408 H         1 <0>         0.1234
     59 H20         6.7578   -5.5663   -4.9177 H         1 <0>         0.0992
     60 H21         7.9078   -3.6031   -2.9552 H         1 <0>         0.4014
     61 H22         8.0887   -2.7449   -0.2471 H         1 <0>         0.0849
     62 H23         8.5497   -4.4599   -0.3672 H         1 <0>         0.0801
     63 H24        10.4594   -5.1277   -1.7844 H         1 <0>         0.1250
     64 H25        12.6888   -4.4784   -2.5997 H         1 <0>         0.1353
     65 H26        13.3274   -2.1027   -2.6828 H         1 <0>         0.1348
     66 H27         9.4877   -1.0259   -1.1410 H         1 <0>         0.1332
     67 H28        10.0174    0.9168   -1.1897 H         1 <0>         0.1649
     68 H29        11.3692    3.1308   -1.5617 H         1 <0>         0.1449
     69 H30        13.7754    2.4552   -2.5489 H         1 <0>         0.1452
     70 H31        13.8431   -0.1571   -2.7480 H         1 <0>         0.1666
     71 H32         6.7702   -9.1204   -4.3169 H         1 <0>         0.4337
@<TRIPOS>BOND
     1    1    6 ar
     2    1    2 ar
     3    1   41 1
     4    2    3 ar
     5    2   42 1
     6    3    4 ar
     7    3   43 1
     8    4    5 ar
     9    4   40 1
    10    5    6 ar
    11    5    7 1
    12    6   44 1
    13    7   11 1
    14    7    8 2
    15    8    9 1
    16    8   45 1
    17    9   10 2
    18    9   46 1
    19   10   11 1
    20   10   12 1
    21   12   13 2
    22   12   14 am
    23   14   19 1
    24   14   15 1
    25   15   16 1
    26   15   47 1
    27   15   48 1
    28   16   17 1
    29   16   18 1
    30   16   25 1
    31   18   24 1
    32   18   19 1
    33   18   20 1
    34   19   49 1
    35   19   50 1
    36   20   21 1
    37   20   51 1
    38   20   52 1
    39   21   22 1
    40   21   53 1
    41   21   54 1
    42   22   23 1
    43   22   55 1
    44   22   71 1
    45   23   24 1
    46   23   56 1
    47   23   57 1
    48   24   58 1
    49   24   59 1
    50   25   26 2
    51   25   27 am
    52   27   28 1
    53   27   60 1
    54   28   29 1
    55   28   61 1
    56   28   62 1
    57   29   34 ar
    58   29   30 ar
    59   30   31 ar
    60   30   63 1
    61   31   32 ar
    62   31   64 1
    63   32   33 ar
    64   32   65 1
    65   33   34 ar
    66   33   35 1
    67   34   66 1
    68   35   39 1
    69   35   36 1
    70   36   37 2
    71   36   67 1
    72   37   38 1
    73   37   68 1
    74   38   39 2
    75   38   69 1
    76   39   70 1
@<TRIPOS>MOLECULE
ZINC63272337
   63    66     0     0     0
SMALL
USER_CHARGES

@<TRIPOS>ATOM
      1 C1         -0.0338    1.5364   -0.1108 C.3       1 <0>        -0.1617
      2 C2         -0.0045    0.0068   -0.0952 C.3       1 <0>         0.1458
      3 H1          0.4749   -0.3568   -1.0041 H         1 <0>         0.1230
      4 C3          0.7711   -0.4685    1.1064 C.2       1 <0>         0.5130
      5 O1          0.2324   -1.1678    1.9381 O.2       1 <0>        -0.5127
      6 N1          2.0634   -0.1165    1.2566 N.am      1 <0>        -0.6644
      7 C4          2.7558   -0.4758    2.4183 C.ar      1 <0>         0.1505
      8 C5          3.7083    0.3817    2.9539 C.ar      1 <0>        -0.1366
      9 C6          4.3900    0.0251    4.1007 C.ar      1 <0>        -0.0863
     10 C7          4.1260   -1.1848    4.7161 C.ar      1 <0>        -0.1208
     11 C8          3.1779   -2.0417    4.1854 C.ar      1 <0>        -0.0177
     12 C9          2.4881   -1.6874    3.0408 C.ar      1 <0>        -0.1135
     13 Cl1         2.8499   -3.5599    4.9609 Cl        1 <0>        -0.0609
     14 N2         -1.3746   -0.5073   -0.0266 N.am      1 <0>        -0.7287
     15 C10        -2.0939   -0.6614   -1.1559 C.2       1 <0>         0.7161
     16 O2         -1.5766   -0.4623   -2.2381 O.2       1 <0>        -0.5814
     17 N3         -3.3865   -1.0363   -1.0857 N.am      1 <0>        -0.6293
     18 C11        -3.9961   -1.3814    0.2063 C.3       1 <0>         0.0962
     19 C12        -5.2414   -0.5095    0.4091 C.3       1 <0>         0.0964
     20 N4         -6.0668   -0.5800   -0.8048 N.am      1 <0>        -0.6084
     21 C13        -5.4573   -0.2348   -2.0968 C.3       1 <0>         0.0896
     22 C14        -4.2134   -1.1013   -2.2989 C.3       1 <0>         0.1149
     23 C15        -7.3595   -0.9548   -0.7346 C.2       1 <0>         0.5170
     24 O3         -7.8515   -1.2377    0.3373 O.2       1 <0>        -0.5294
     25 C16        -8.1936   -1.0224   -1.9879 C.3       1 <0>        -0.1386
     26 C17        -9.6125   -1.4712   -1.6326 C.3       1 <0>        -0.0784
     27 C18       -10.4466   -1.5388   -2.8859 C.2       1 <0>         0.0725
     28 C19       -10.6849   -2.6319   -3.6461 C.ar      1 <0>        -0.1727
     29 C20       -10.2543   -4.0310   -3.5385 C.ar      1 <0>        -0.0099
     30 C21       -10.6639   -4.9171   -4.4745 C.ar      1 <0>        -0.1529
     31 C22       -11.4869   -4.5337   -5.5424 C.ar      1 <0>         0.0552
     32 C23       -11.9233   -3.2672   -5.7085 C.ar      1 <0>        -0.2109
     33 C24       -11.5541   -2.2526   -4.7828 C.ar      1 <0>         0.3273
     34 N5        -11.8420   -0.9748   -4.7275 N.pl3     1 <0>        -0.5877
     35 C25       -11.1921   -0.3997   -3.5445 C.3       1 <0>         0.0595
     36 H2          0.9856    1.9189   -0.1619 H         1 <0>         0.0759
     37 H3         -0.5948    1.8801   -0.9799 H         1 <0>         0.0783
     38 H4         -0.5132    1.8999    0.7981 H         1 <0>         0.0662
     39 H5          2.5134    0.3860    0.5596 H         1 <0>         0.4175
     40 H6          3.9158    1.3265    2.4737 H         1 <0>         0.1346
     41 H7          5.1306    0.6918    4.5172 H         1 <0>         0.1400
     42 H8          4.6611   -1.4616    5.6125 H         1 <0>         0.1374
     43 H9          1.7450   -2.3543    2.6291 H         1 <0>         0.1491
     44 H10        -1.7641   -0.7367    0.8316 H         1 <0>         0.4063
     45 H11        -4.2820   -2.4333    0.2065 H         1 <0>         0.0804
     46 H12        -3.2831   -1.1934    1.0090 H         1 <0>         0.0952
     47 H13        -5.8119   -0.8790    1.2613 H         1 <0>         0.1107
     48 H14        -4.9402    0.5227    0.5873 H         1 <0>         0.0793
     49 H15        -6.1702   -0.4229   -2.8995 H         1 <0>         0.0961
     50 H16        -5.1714    0.8170   -2.0970 H         1 <0>         0.0828
     51 H17        -3.6440   -0.7283   -3.1501 H         1 <0>         0.1117
     52 H18        -4.5151   -2.1328   -2.4811 H         1 <0>         0.0725
     53 H19        -8.2299   -0.0377   -2.4537 H         1 <0>         0.1056
     54 H20        -7.7497   -1.7364   -2.6816 H         1 <0>         0.1065
     55 H21        -9.5762   -2.4560   -1.1668 H         1 <0>         0.1178
     56 H22       -10.0564   -0.7573   -0.9388 H         1 <0>         0.1203
     57 H23        -9.6196   -4.3480   -2.7243 H         1 <0>         0.1607
     58 H24       -10.3483   -5.9471   -4.3973 H         1 <0>         0.1576
     59 H25       -11.7838   -5.2823   -6.2620 H         1 <0>         0.1606
     60 H26       -12.5559   -3.0230   -6.5490 H         1 <0>         0.1600
     61 H27       -11.9395    0.0047   -2.8619 H         1 <0>         0.1750
     62 H28       -10.4944    0.3822   -3.8446 H         1 <0>         0.1726
     63 H29       -12.3955   -0.4913   -5.3605 H         1 <0>         0.4555
@<TRIPOS>BOND
     1    1    2 1
     2    1   36 1
     3    1   37 1
     4    1   38 1
     5    2    3 1
     6    2    4 1
     7    2   14 1
     8    4    5 2
     9    4    6 am
    10    6    7 1
    11    6   39 1
    12    7   12 ar
    13    7    8 ar
    14    8    9 ar
    15    8   40 1
    16    9   10 ar
    17    9   41 1
    18   10   11 ar
    19   10   42 1
    20   11   12 ar
    21   11   13 1
    22   12   43 1
    23   14   15 am
    24   14   44 1
    25   15   16 2
    26   15   17 am
    27   17   22 1
    28   17   18 1
    29   18   19 1
    30   18   45 1
    31   18   46 1
    32   19   20 1
    33   19   47 1
    34   19   48 1
    35   20   21 1
    36   20   23 am
    37   21   22 1
    38   21   49 1
    39   21   50 1
    40   22   51 1
    41   22   52 1
    42   23   24 2
    43   23   25 1
    44   25   26 1
    45   25   53 1
    46   25   54 1
    47   26   27 1
    48   26   55 1
    49   26   56 1
    50   27   35 1
    51   27   28 2
    52   28   33 ar
    53   28   29 ar
    54   29   30 ar
    55   29   57 1
    56   30   31 ar
    57   30   58 1
    58   31   32 ar
    59   31   59 1
    60   32   33 ar
    61   32   60 1
    62   33   34 2
    63   34   35 1
    64   34   63 1
    65   35   61 1
    66   35   62 1
@<TRIPOS>MOLECULE
ZINC02335177
   61    66     0     0     0
SMALL
USER_CHARGES
methylsulfanyl-N-(2-morpholinoethyl)-phenyl-BLAHamine
@<TRIPOS>ATOM
      1 C1          5.6315   -0.3082   -3.6659 C.3       1 <0>        -0.1487
      2 S1          4.4445   -0.1287   -2.3113 S.3       1 <0>         0.0324
      3 C2          3.0782    0.5536   -3.1901 C.ar      1 <0>         0.3424
      4 N1          1.9792    0.8340   -2.5217 N.ar      1 <0>        -0.5025
      5 C3          0.8959    1.3595   -3.1383 C.ar      1 <0>         0.2525
      6 C4         -0.3993    1.7272   -2.5366 C.ar      1 <0>        -0.1428
      7 C5         -0.7856    1.6072   -1.1813 C.ar      1 <0>         0.0309
      8 C6         -2.0342    2.0006   -0.8001 C.ar      1 <0>        -0.1436
      9 C7         -2.9217    2.5198   -1.7499 C.ar      1 <0>         0.2456
     10 N2         -2.5551    2.6292   -3.0200 N.ar      1 <0>        -0.4429
     11 C8         -1.3583    2.2584   -3.4191 C.ar      1 <0>         0.1375
     12 S2         -0.5461    2.2620   -4.9985 S.3       1 <0>         0.1352
     13 C9          1.0171    1.5825   -4.5145 C.ar      1 <0>        -0.3002
     14 C10         2.1912    1.2749   -5.1889 C.ar      1 <0>         0.5083
     15 N3          3.2050    0.7602   -4.4949 N.ar      1 <0>        -0.5687
     16 N4          2.3053    1.4975   -6.5523 N.pl3     1 <0>        -0.7087
     17 C11         3.5522    1.1667   -7.2466 C.3       1 <0>         0.1080
     18 C12         3.4146    1.5071   -8.7319 C.3       1 <0>        -0.0196
     19 C13         5.7643    2.0413   -8.9781 C.3       1 <0>        -0.0455
     20 C14         7.0574    1.6231   -9.6830 C.3       1 <0>         0.0357
     21 O1          6.8642    1.6851  -11.0987 O.3       1 <0>        -0.3553
     22 C15         5.8014    0.8532  -11.5716 C.3       1 <0>         0.0347
     23 C16         4.4955    1.2636  -10.8859 C.3       1 <0>        -0.0377
     24 C17        -4.2793    2.9477   -1.3345 C.ar      1 <0>        -0.0630
     25 C18        -4.9569    2.2516   -0.3348 C.ar      1 <0>        -0.0911
     26 C19        -6.2181    2.6576    0.0514 C.ar      1 <0>        -0.1215
     27 C20        -6.8143    3.7463   -0.5592 C.ar      1 <0>        -0.0976
     28 C21        -6.1489    4.4374   -1.5558 C.ar      1 <0>        -0.1236
     29 C22        -4.8851    4.0441   -1.9462 C.ar      1 <0>        -0.0745
     30 C23        -2.2121    1.7768    0.6871 C.3       1 <0>        -0.0791
     31 C24        -0.7792    1.6055    1.2441 C.3       1 <0>        -0.1222
     32 C25        -0.0127    1.0858    0.0080 C.3       1 <0>        -0.0872
     33 H1          5.8312    0.6689   -4.1059 H         1 <0>         0.0869
     34 H2          6.5601   -0.7303   -3.2817 H         1 <0>         0.1106
     35 H3          5.2180   -0.9713   -4.4258 H         1 <0>         0.0872
     36 H4          1.5597    1.8724   -7.0466 H         1 <0>         0.4197
     37 H5          4.3715    1.7425   -6.8163 H         1 <0>         0.0899
     38 H6          3.7585    0.1022   -7.1354 H         1 <0>         0.0904
     39 H7          2.5953    0.9313   -9.1623 H         1 <0>         0.1404
     40 H8          3.2083    2.5716   -8.8431 H         1 <0>         0.1412
     41 H9          5.5349    3.0782   -9.2236 H         1 <0>         0.1431
     42 H10         5.8887    1.9408   -7.8999 H         1 <0>         0.1424
     43 H11         7.3157    0.6040   -9.3952 H         1 <0>         0.0826
     44 H12         7.8639    2.2979   -9.3958 H         1 <0>         0.1433
     45 H13         6.0231   -0.1883  -11.3388 H         1 <0>         0.0825
     46 H14         5.6988    0.9718  -12.6503 H         1 <0>         0.1437
     47 H15         3.6937    0.5955  -11.2003 H         1 <0>         0.1431
     48 H16         4.2458    2.2880  -11.1619 H         1 <0>         0.1425
     49 H17        -4.4942    1.3987    0.1394 H         1 <0>         0.1300
     50 H18        -6.7423    2.1217    0.8289 H         1 <0>         0.1311
     51 H19        -7.8030    4.0581   -0.2564 H         1 <0>         0.1286
     52 H20        -6.6193    5.2867   -2.0290 H         1 <0>         0.1296
     53 H21        -4.3662    4.5848   -2.7238 H         1 <0>         0.1291
     54 H22        -2.6947    2.6405    1.1446 H         1 <0>         0.0889
     55 H23        -2.7982    0.8756    0.8667 H         1 <0>         0.0910
     56 H24        -0.7595    0.8718    2.0499 H         1 <0>         0.0888
     57 H25        -0.3751    2.5612    1.5779 H         1 <0>         0.0789
     58 H26         0.0021   -0.0041    0.0020 H         1 <0>         0.0960
     59 H27         1.0043    1.4779    0.0004 H         1 <0>         0.0936
     60 N5          4.6726    1.1499   -9.4227 N.4       1 <0>        -0.3914
     61 H28         4.9174    0.1803   -9.1900 H         1 <0>         0.4295
@<TRIPOS>BOND
     1    1    2 1
     2    1   33 1
     3    1   34 1
     4    1   35 1
     5    2    3 1
     6    3   15 ar
     7    3    4 ar
     8    4    5 ar
     9    5   13 ar
    10    5    6 1
    11    6   11 ar
    12    6    7 ar
    13    7   32 1
    14    7    8 ar
    15    8    9 ar
    16    8   30 1
    17    9   10 ar
    18    9   24 1
    19   10   11 ar
    20   11   12 1
    21   12   13 1
    22   13   14 ar
    23   14   15 ar
    24   14   16 1
    25   16   17 1
    26   16   36 1
    27   17   18 1
    28   17   37 1
    29   17   38 1
    30   18   39 1
    31   18   40 1
    32   18   60 1
    33   19   20 1
    34   19   41 1
    35   19   42 1
    36   19   60 1
    37   20   21 1
    38   20   43 1
    39   20   44 1
    40   21   22 1
    41   22   23 1
    42   22   45 1
    43   22   46 1
    44   23   47 1
    45   23   48 1
    46   23   60 1
    47   24   29 ar
    48   24   25 ar
    49   25   26 ar
    50   25   49 1
    51   26   27 ar
    52   26   50 1
    53   27   28 ar
    54   27   51 1
    55   28   29 ar
    56   28   52 1
    57   29   53 1
    58   30   31 1
    59   30   54 1
    60   30   55 1
    61   31   32 1
    62   31   56 1
    63   31   57 1
    64   32   58 1
    65   32   59 1
    66   60   61 1
@<TRIPOS>MOLECULE
ZINC13030146
   63    68     0     0     0
SMALL
USER_CHARGES
N-[(2S)-2-(4-methyl-1-piperidyl)-2-(2-thienyl)ethyl]-(3-pyridyl)BLAHamine
@<TRIPOS>ATOM
      1 C1         -2.7490    3.5665    4.5718 C.3       1 <0>        -0.1538
      2 C2         -1.6770    3.2188    3.5370 C.3       1 <0>        -0.1033
      3 C3         -2.0881    3.7704    2.1691 C.3       1 <0>        -0.1435
      4 C4         -1.0427    3.3674    1.1268 C.3       1 <0>        -0.0056
      5 C5         -0.5022    1.3545    2.3631 C.3       1 <0>        -0.0115
      6 C6         -1.5316    1.6975    3.4424 C.3       1 <0>        -0.1429
      7 C7         -0.0488    1.4762   -0.0118 C.3       1 <0>         0.1272
      8 H1          0.9361    1.9205    0.1317 H         1 <0>         0.1746
      9 C8          0.0732   -0.0489   -0.0015 C.3       1 <0>         0.1040
     10 N1         -1.2640   -0.6460   -0.0407 N.pl3     1 <0>        -0.7255
     11 C9         -1.4116   -2.0185    0.0506 C.ar      1 <0>         0.4879
     12 C10        -2.7062   -2.6086    0.0136 C.ar      1 <0>        -0.2239
     13 C11        -4.0109   -1.9402   -0.1145 C.2       1 <0>        -0.1295
     14 C12        -5.0986   -2.7282   -0.1261 C.2       1 <0>        -0.1569
     15 S1         -4.4722   -4.3849    0.0335 S.3       1 <0>         0.1825
     16 C13        -2.7414   -4.0122    0.1134 C.ar      1 <0>         0.1455
     17 N2         -1.6386   -4.7237    0.2336 N.ar      1 <0>        -0.4944
     18 C14        -0.4565   -4.1216    0.2633 C.ar      1 <0>         0.4358
     19 N3         -0.3518   -2.7997    0.1679 N.ar      1 <0>        -0.5732
     20 C15         0.7724   -4.9398    0.3994 C.ar      1 <0>        -0.1093
     21 C16         0.6915   -6.3321    0.5014 C.ar      1 <0>        -0.0211
     22 C17         1.8682   -7.0508    0.6206 C.ar      1 <0>        -0.1772
     23 C18         3.0745   -6.3745    0.6469 C.ar      1 <0>         0.1262
     24 N4          3.1192   -5.0595    0.5541 N.ar      1 <0>        -0.4889
     25 C19         2.0268   -4.3334    0.4333 C.ar      1 <0>         0.1529
     26 C20        -6.3719   -1.9374   -0.2656 C.3       1 <0>        -0.0422
     27 C21        -5.9146   -0.5534   -0.7762 C.3       1 <0>        -0.1152
     28 C22        -4.4700   -0.4849   -0.2432 C.3       1 <0>        -0.0685
     29 C23        -0.6150    1.9260   -1.3340 C.2       1 <0>        -0.2611
     30 C24         0.0322    2.4341   -2.4112 C.2       1 <0>        -0.0666
     31 C25        -0.6999    2.7789   -3.5319 C.2       1 <0>        -0.1700
     32 C26        -2.0445    2.6087   -3.5166 C.2       1 <0>        -0.1042
     33 S2         -2.3130    1.9351   -1.8852 S.3       1 <0>         0.0325
     34 H2         -3.6994    3.1244    4.2730 H         1 <0>         0.0616
     35 H3         -2.4555    3.1735    5.5452 H         1 <0>         0.0683
     36 H4         -2.8558    4.6495    4.6345 H         1 <0>         0.0687
     37 H5         -0.7256    3.6587    3.8362 H         1 <0>         0.0919
     38 H6         -2.1518    4.8574    2.2193 H         1 <0>         0.1166
     39 H7         -3.0586    3.3611    1.8884 H         1 <0>         0.0869
     40 H8         -0.0754    3.7885    1.4008 H         1 <0>         0.1373
     41 H9         -1.3400    3.7464    0.1490 H         1 <0>         0.1295
     42 H10        -0.4068    0.2716    2.2832 H         1 <0>         0.1314
     43 H11         0.4625    1.7851    2.6313 H         1 <0>         0.1405
     44 H12        -1.1976    1.3034    4.4022 H         1 <0>         0.1167
     45 H13        -2.4934    1.2554    3.1823 H         1 <0>         0.0856
     46 H14         0.6418   -0.3738   -0.8729 H         1 <0>         0.1185
     47 H15         0.5864   -0.3662    0.9062 H         1 <0>         0.1096
     48 H16        -2.0459   -0.0791   -0.1306 H         1 <0>         0.4014
     49 H17        -0.2646   -6.8340    0.4831 H         1 <0>         0.1501
     50 H18         1.8445   -8.1278    0.6974 H         1 <0>         0.1470
     51 H19         3.9944   -6.9319    0.7447 H         1 <0>         0.1650
     52 H20         2.1039   -3.2587    0.3597 H         1 <0>         0.1646
     53 H21        -7.0356   -2.4098   -0.9899 H         1 <0>         0.0911
     54 H22        -6.8679   -1.8417    0.7003 H         1 <0>         0.0958
     55 H23        -5.9310   -0.5143   -1.8654 H         1 <0>         0.0830
     56 H24        -6.5261    0.2416   -0.3494 H         1 <0>         0.0914
     57 H25        -3.8334    0.0506   -0.9475 H         1 <0>         0.0679
     58 H26        -4.4502    0.0053    0.7301 H         1 <0>         0.0762
     59 H27         1.1041    2.5648   -2.3952 H         1 <0>         0.1490
     60 H28        -0.2083    3.1822   -4.4049 H         1 <0>         0.1548
     61 H29        -2.7662    2.8249   -4.2904 H         1 <0>         0.2023
     62 N5         -0.9685    1.8919    1.0673 N.4       1 <0>        -0.3965
     63 H30        -1.9045    1.5191    0.8696 H         1 <0>         0.4131
@<TRIPOS>BOND
     1    1    2 1
     2    1   34 1
     3    1   35 1
     4    1   36 1
     5    2    6 1
     6    2    3 1
     7    2   37 1
     8    3    4 1
     9    3   38 1
    10    3   39 1
    11    4   40 1
    12    4   41 1
    13    4   62 1
    14    5    6 1
    15    5   42 1
    16    5   43 1
    17    5   62 1
    18    6   44 1
    19    6   45 1
    20    7    8 1
    21    7    9 1
    22    7   29 1
    23    7   62 1
    24    9   10 1
    25    9   46 1
    26    9   47 1
    27   10   11 1
    28   10   48 1
    29   11   19 ar
    30   11   12 ar
    31   12   16 ar
    32   12   13 1
    33   13   28 1
    34   13   14 2
    35   14   15 1
    36   14   26 1
    37   15   16 1
    38   16   17 ar
    39   17   18 ar
    40   18   19 ar
    41   18   20 1
    42   20   25 ar
    43   20   21 ar
    44   21   22 ar
    45   21   49 1
    46   22   23 ar
    47   22   50 1
    48   23   24 ar
    49   23   51 1
    50   24   25 ar
    51   25   52 1
    52   26   27 1
    53   26   53 1
    54   26   54 1
    55   27   28 1
    56   27   55 1
    57   27   56 1
    58   28   57 1
    59   28   58 1
    60   29   33 1
    61   29   30 2
    62   30   31 1
    63   30   59 1
    64   31   32 2
    65   31   60 1
    66   32   33 1
    67   32   61 1
    68   62   63 1
@<TRIPOS>MOLECULE
ZINC23431474
   61    64     0     0     0
SMALL
USER_CHARGES
4-[(2R)-2-(4-chlorophenyl)-2-[(2,6-difluorophenyl)methoxy]ethyl]-N-(3-fluorophenyl)piperazine-1-carboxamide
@<TRIPOS>ATOM
      1 C1         -3.6144   -0.8518   -0.2594 C.ar      1 <0>        -0.0658
      2 C2         -2.4356   -0.1357   -0.1814 C.ar      1 <0>        -0.1326
      3 C3         -1.2291   -0.8018   -0.0110 C.ar      1 <0>         0.1860
      4 C4         -1.2118   -2.1863    0.0919 C.ar      1 <0>        -0.1832
      5 C5         -2.3954   -2.8982    0.0184 C.ar      1 <0>         0.1243
      6 C6         -3.5962   -2.2301   -0.1570 C.ar      1 <0>        -0.1629
      7 F1         -2.3804   -4.2454    0.1183 F         1 <0>        -0.1320
      8 N1         -0.0334   -0.0784    0.0629 N.am      1 <0>        -0.6909
      9 C7         -0.0231    1.1520    0.6128 C.2       1 <0>         0.7148
     10 O1         -1.0173    1.5781    1.1681 O.2       1 <0>        -0.5469
     11 N2          1.0911    1.9079    0.5520 N.am      1 <0>        -0.6417
     12 C8          1.0890    3.2960    1.0384 C.3       1 <0>         0.1067
     13 C9          2.2715    3.4698    2.0047 C.3       1 <0>        -0.0275
     14 N3          3.5097    3.0485    1.3359 N.4       1 <0>        -0.3979
     15 C10         3.4712    1.6203    0.9940 C.3       1 <0>        -0.0176
     16 C11         2.3396    1.3687   -0.0081 C.3       1 <0>         0.0854
     17 C12         4.6854    3.3612    2.1592 C.3       1 <0>         0.0063
     18 C13         4.5641    4.7870    2.7007 C.3       1 <0>         0.1119
     19 H1          3.6405    4.9239    3.2822 H         1 <0>         0.0974
     20 C14         5.7702    5.1079    3.5453 C.ar      1 <0>        -0.1386
     21 C15         6.9288    5.5690    2.9485 C.ar      1 <0>        -0.0703
     22 C16         8.0335    5.8688    3.7232 C.ar      1 <0>        -0.1088
     23 C17         7.9833    5.6966    5.0950 C.ar      1 <0>        -0.0162
     24 C18         6.8254    5.2298    5.6912 C.ar      1 <0>        -0.1091
     25 C19         5.7195    4.9357    4.9160 C.ar      1 <0>        -0.0897
     26 Cl1         9.3729    6.0657    6.0679 Cl        1 <0>        -0.0487
     27 O2          4.4887    5.7063    1.6093 O.3       1 <0>        -0.3788
     28 C20         3.7336    6.8857    1.8939 C.3       1 <0>         0.1048
     29 C21         3.7203    7.7787    0.6800 C.ar      1 <0>        -0.1766
     30 C22         4.7060    8.7362    0.5138 C.ar      1 <0>         0.1551
     31 C23         4.6957    9.5528   -0.6045 C.ar      1 <0>        -0.1611
     32 C24         3.6957    9.4193   -1.5491 C.ar      1 <0>        -0.0427
     33 C25         2.7078    8.4674   -1.3813 C.ar      1 <0>        -0.1628
     34 C26         2.7192    7.6459   -0.2666 C.ar      1 <0>         0.1447
     35 F2          1.7534    6.7156   -0.1029 F         1 <0>        -0.1327
     36 F3          5.6806    8.8706    1.4398 F         1 <0>        -0.1217
     37 H2         -4.5521   -0.3335   -0.3958 H         1 <0>         0.1409
     38 H3         -2.4519    0.9415   -0.2572 H         1 <0>         0.1395
     39 H4         -0.2753   -2.7067    0.2286 H         1 <0>         0.1380
     40 H5         -4.5197   -2.7871   -0.2134 H         1 <0>         0.1416
     41 H6          0.8980   -0.5140   -0.3278 H         1 <0>         0.4270
     42 H7          1.1939    3.9833    0.1860 H         1 <0>         0.1005
     43 H8          0.1423    3.5004    1.5598 H         1 <0>         0.1412
     44 H9          2.3526    4.5267    2.2986 H         1 <0>         0.1396
     45 H10         2.1074    2.8519    2.8998 H         1 <0>         0.1357
     46 H11         4.4315    1.3244    0.5464 H         1 <0>         0.1488
     47 H12         3.2939    1.0298    1.9050 H         1 <0>         0.1341
     48 H13         2.2266    0.2886   -0.1831 H         1 <0>         0.1215
     49 H14         2.5623    1.8730   -0.9600 H         1 <0>         0.1044
     50 H15         4.7434    2.6536    2.9994 H         1 <0>         0.1451
     51 H16         5.5950    3.2779    1.5462 H         1 <0>         0.1468
     52 H17         6.9693    5.6992    1.8771 H         1 <0>         0.1387
     53 H18         8.9371    6.2332    3.2573 H         1 <0>         0.1410
     54 H19         6.7857    5.0948    6.7620 H         1 <0>         0.1417
     55 H20         4.8157    4.5709    5.3813 H         1 <0>         0.1339
     56 H21         2.7022    6.6066    2.1551 H         1 <0>         0.0743
     57 H22         4.1935    7.4208    2.7378 H         1 <0>         0.0832
     58 H23         5.4672   10.2969   -0.7367 H         1 <0>         0.1507
     59 H24         3.6860   10.0595   -2.4188 H         1 <0>         0.1521
     60 H25         1.9268    8.3640   -2.1201 H         1 <0>         0.1493
     61 H26         3.5922    3.6153    0.3968 H         1 <0>         0.4499
@<TRIPOS>BOND
     1    1    6 ar
     2    1    2 ar
     3    1   37 1
     4    2    3 ar
     5    2   38 1
     6    3    4 ar
     7    3    8 1
     8    4    5 ar
     9    4   39 1
    10    5    6 ar
    11    5    7 1
    12    6   40 1
    13    8    9 am
    14    8   41 1
    15    9   10 2
    16    9   11 am
    17   11   16 1
    18   11   12 1
    19   12   13 1
    20   12   42 1
    21   12   43 1
    22   13   14 1
    23   13   44 1
    24   13   45 1
    25   14   15 1
    26   14   17 1
    27   14   61 1
    28   15   16 1
    29   15   46 1
    30   15   47 1
    31   16   48 1
    32   16   49 1
    33   17   18 1
    34   17   50 1
    35   17   51 1
    36   18   19 1
    37   18   20 1
    38   18   27 1
    39   20   25 ar
    40   20   21 ar
    41   21   22 ar
    42   21   52 1
    43   22   23 ar
    44   22   53 1
    45   23   24 ar
    46   23   26 1
    47   24   25 ar
    48   24   54 1
    49   25   55 1
    50   27   28 1
    51   28   29 1
    52   28   56 1
    53   28   57 1
    54   29   34 ar
    55   29   30 ar
    56   30   31 ar
    57   30   36 1
    58   31   32 ar
    59   31   58 1
    60   32   33 ar
    61   32   59 1
    62   33   34 ar
    63   33   60 1
    64   34   35 1
@<TRIPOS>MOLECULE
ZINC38597792
   58    61     0     0     0
SMALL
USER_CHARGES

@<TRIPOS>ATOM
      1 C1          3.6722    0.3677   -3.3227 C.ar      1 <0>        -0.1087
      2 C2          3.1389    1.3892   -2.5586 C.ar      1 <0>        -0.0871
      3 C3          2.7274    1.1408   -1.2630 C.ar      1 <0>        -0.1058
      4 C4          2.8488   -0.1306   -0.7305 C.ar      1 <0>        -0.0226
      5 C5          3.3820   -1.1523   -1.4956 C.ar      1 <0>        -0.0989
      6 C6          3.7937   -0.9024   -2.7914 C.ar      1 <0>        -0.0905
      7 C7          3.5150   -2.5371   -0.9163 C.3       1 <0>        -0.5792
      8 S1          2.0038   -3.4818   -1.2548 S.o2      1 <0>         2.5986
      9 O1          0.9133   -2.9394   -0.5228 O.2       1 <0>        -0.9290
     10 O2          1.8866   -3.7350   -2.6481 O.2       1 <0>        -0.9307
     11 N1          2.2704   -4.9686   -0.5761 N.pl3     1 <0>        -1.1377
     12 C8          2.4203   -5.0949    0.8757 C.3       1 <0>         0.0851
     13 C9          2.2400   -6.5590    1.2816 C.3       1 <0>         0.1305
     14 H1          2.2501   -6.6386    2.3687 H         1 <0>         0.1770
     15 C10         3.3644   -7.3817    0.7072 C.2       1 <0>        -0.1112
     16 C11         4.4559   -7.7969    1.3748 C.2       1 <0>        -0.1248
     17 C12         5.2414   -8.5328    0.4581 C.2       1 <0>        -0.2113
     18 C13         4.5829   -8.5233   -0.7148 C.2       1 <0>         0.0123
     19 O3          3.4439   -7.8294   -0.5564 O.3       1 <0>        -0.1836
     20 N2          0.9571   -7.0556    0.7662 N.4       1 <0>        -0.3847
     21 C14         0.7530   -8.4383    1.2164 C.3       1 <0>        -0.0216
     22 C15        -0.5276   -8.9957    0.5864 C.3       1 <0>         0.1017
     23 N3         -1.6380   -8.0841    0.9027 N.pl3     1 <0>        -0.6428
     24 C16        -1.4550   -6.6493    0.6339 C.3       1 <0>         0.1007
     25 C17        -0.1306   -6.2026    1.2617 C.3       1 <0>        -0.0373
     26 C18        -2.8332   -8.5674    1.4438 C.ar      1 <0>         0.1877
     27 C19        -3.8213   -7.6803    1.8506 C.ar      1 <0>        -0.1570
     28 C20        -5.0014   -8.1600    2.3844 C.ar      1 <0>        -0.1038
     29 C21        -5.1997   -9.5243    2.5142 C.ar      1 <0>         0.0640
     30 C22        -4.2159  -10.4105    2.1093 C.ar      1 <0>        -0.1045
     31 C23        -3.0364   -9.9354    1.5700 C.ar      1 <0>        -0.1568
     32 F1         -6.3545   -9.9913    3.0370 F         1 <0>        -0.1358
     33 Cl1         2.3326   -0.4433    0.8972 Cl        1 <0>        -0.0549
     34 H2          3.9898    0.5614   -4.3366 H         1 <0>         0.1416
     35 H3          3.0442    2.3815   -2.9743 H         1 <0>         0.1436
     36 H4          2.3115    1.9390   -0.6660 H         1 <0>         0.1448
     37 H5          4.2104   -1.6999   -3.3887 H         1 <0>         0.1408
     38 H6          4.3679   -3.0408   -1.3712 H         1 <0>         0.1507
     39 H7          3.6663   -2.4674    0.1608 H         1 <0>         0.1451
     40 H8          2.3274   -5.7559   -1.1399 H         1 <0>         0.4190
     41 H9          3.4139   -4.7562    1.1693 H         1 <0>         0.1196
     42 H10         1.6666   -4.4845    1.3732 H         1 <0>         0.1214
     43 H11         4.6880   -7.6045    2.4119 H         1 <0>         0.1634
     44 H12         6.1885   -9.0107    0.6606 H         1 <0>         0.1648
     45 H13         4.9124   -8.9967   -1.6279 H         1 <0>         0.2197
     46 H14         1.6033   -9.0488    0.9123 H         1 <0>         0.1401
     47 H15         0.6619   -8.4572    2.3024 H         1 <0>         0.1385
     48 H16        -0.4050   -9.0624   -0.4946 H         1 <0>         0.0894
     49 H17        -0.7371   -9.9839    0.9959 H         1 <0>         0.1295
     50 H18        -1.4261   -6.4791   -0.4423 H         1 <0>         0.0910
     51 H19        -2.2776   -6.0863    1.0748 H         1 <0>         0.1326
     52 H20        -0.1950   -6.2892    2.3463 H         1 <0>         0.1424
     53 H21         0.0685   -5.1658    0.9909 H         1 <0>         0.1501
     54 H22        -3.6669   -6.6162    1.7499 H         1 <0>         0.1343
     55 H23        -5.7699   -7.4705    2.7012 H         1 <0>         0.1422
     56 H24        -4.3725  -11.4742    2.2117 H         1 <0>         0.1418
     57 H25        -2.2711  -10.6272    1.2502 H         1 <0>         0.1331
     58 H26         0.9692   -7.0312   -0.2424 H         1 <0>         0.4232
@<TRIPOS>BOND
     1    1    6 ar
     2    1    2 ar
     3    1   34 1
     4    2    3 ar
     5    2   35 1
     6    3    4 ar
     7    3   36 1
     8    4    5 ar
     9    4   33 1
    10    5    6 ar
    11    5    7 1
    12    6   37 1
    13    7    8 1
    14    7   38 1
    15    7   39 1
    16    8    9 2
    17    8   10 2
    18    8   11 1
    19   11   12 1
    20   11   40 1
    21   12   13 1
    22   12   41 1
    23   12   42 1
    24   13   14 1
    25   13   15 1
    26   13   20 1
    27   15   19 1
    28   15   16 2
    29   16   17 1
    30   16   43 1
    31   17   18 2
    32   17   44 1
    33   18   19 1
    34   18   45 1
    35   20   25 1
    36   20   21 1
    37   20   58 1
    38   21   22 1
    39   21   46 1
    40   21   47 1
    41   22   23 1
    42   22   48 1
    43   22   49 1
    44   23   24 1
    45   23   26 1
    46   24   25 1
    47   24   50 1
    48   24   51 1
    49   25   52 1
    50   25   53 1
    51   26   31 ar
    52   26   27 ar
    53   27   28 ar
    54   27   54 1
    55   28   29 ar
    56   28   55 1
    57   29   30 ar
    58   29   32 1
    59   30   31 ar
    60   30   56 1
    61   31   57 1
@<TRIPOS>MOLECULE
ZINC52619205
   60    65     0     0     0
SMALL
USER_CHARGES

@<TRIPOS>ATOM
      1 C1         -0.0165    1.3632    0.0095 C.ar      1 <0>        -0.1269
      2 C2          1.1703    2.0818    0.0021 C.ar      1 <0>        -0.0672
      3 C3          2.3860    1.4322   -0.0134 C.ar      1 <0>        -0.1121
      4 C4          2.4272    0.0434   -0.0212 C.ar      1 <0>         0.0725
      5 C5          1.2220   -0.6786   -0.0132 C.ar      1 <0>        -0.1470
      6 C6          0.0021   -0.0041    0.0020 C.ar      1 <0>        -0.0568
      7 C7          1.6125   -2.0934   -0.0246 C.2       1 <0>        -0.1183
      8 C8          2.9523   -2.1110   -0.0379 C.2       1 <0>        -0.0376
      9 O1          3.4321   -0.8551   -0.0360 O.3       1 <0>        -0.1890
     10 C9          3.7986   -3.3579   -0.0530 C.3       1 <0>         0.1987
     11 H1          3.2209   -4.2079    0.3100 H         1 <0>         0.1947
     12 C10         4.3020   -3.6293   -1.4530 C.2       1 <0>         0.0782
     13 C11         5.6520   -3.5874   -1.3806 C.ar      1 <0>        -0.1678
     14 C12         6.7077   -3.7684   -2.3842 C.ar      1 <0>        -0.0276
     15 C13         8.0009   -3.6656   -2.0018 C.ar      1 <0>        -0.1470
     16 C14         8.3573   -3.3913   -0.6743 C.ar      1 <0>         0.0615
     17 C15         7.4444   -3.2126    0.3039 C.ar      1 <0>        -0.2079
     18 C16         6.0547   -3.2986    0.0144 C.ar      1 <0>         0.3457
     19 N1          4.9940   -3.1677    0.7762 N.pl3     1 <0>        -0.5841
     20 C17         3.4683   -3.8932   -2.6804 C.3       1 <0>        -0.1005
     21 C18         4.3875   -4.1165   -3.8829 C.3       1 <0>         0.1015
     22 N2          3.5770   -4.3730   -5.0761 N.pl3     1 <0>        -1.1182
     23 S1          4.2652   -4.2828   -6.5796 S.o2      1 <0>         2.6914
     24 O2          3.2440   -4.6050   -7.5137 O.2       1 <0>        -0.9402
     25 O3          4.9805   -3.0559   -6.6259 O.2       1 <0>        -0.9467
     26 C19         5.4649   -5.5693   -6.6814 C.ar      1 <0>        -0.6797
     27 C20         6.7690   -5.3280   -6.2884 C.ar      1 <0>        -0.0268
     28 C21         7.7128   -6.3320   -6.3660 C.ar      1 <0>        -0.1261
     29 C22         7.3499   -7.5906   -6.8413 C.ar      1 <0>         0.0149
     30 C23         6.0347   -7.8281   -7.2359 C.ar      1 <0>        -0.1227
     31 C24         5.0978   -6.8184   -7.1487 C.ar      1 <0>        -0.0110
     32 C25         8.3602   -8.6737   -6.9275 C.ar      1 <0>        -0.0239
     33 C26         9.6826   -8.4551   -6.5312 C.ar      1 <0>        -0.1583
     34 C27        10.5902   -9.4899   -6.6279 C.ar      1 <0>         0.1055
     35 N3         10.2237  -10.6712   -7.0869 N.ar      1 <0>        -0.4761
     36 C28         8.9863  -10.9189   -7.4711 C.ar      1 <0>         0.1075
     37 C29         8.0142   -9.9421   -7.4017 C.ar      1 <0>        -0.1566
     38 H2         -0.9608    1.8869    0.0259 H         1 <0>         0.1408
     39 H3          1.1414    3.1614    0.0081 H         1 <0>         0.1460
     40 H4          3.3040    2.0012   -0.0199 H         1 <0>         0.1383
     41 H5         -0.9244   -0.5590    0.0075 H         1 <0>         0.1371
     42 H6          0.9527   -2.9484   -0.0226 H         1 <0>         0.1734
     43 H7          6.4555   -3.9808   -3.4126 H         1 <0>         0.1655
     44 H8          8.7792   -3.7988   -2.7385 H         1 <0>         0.1614
     45 H9          9.4054   -3.3203   -0.4236 H         1 <0>         0.1644
     46 H10         7.7712   -3.0032    1.3118 H         1 <0>         0.1640
     47 H11         2.8571   -4.7814   -2.5203 H         1 <0>         0.1373
     48 H12         2.8217   -3.0367   -2.8714 H         1 <0>         0.1360
     49 H13         4.9987   -3.2283   -4.0429 H         1 <0>         0.0958
     50 H14         5.0341   -4.9730   -3.6919 H         1 <0>         0.0826
     51 H15         2.6373   -4.5956   -4.9854 H         1 <0>         0.4257
     52 H16         7.0493   -4.3520   -5.9205 H         1 <0>         0.1423
     53 H17         8.7308   -6.1424   -6.0592 H         1 <0>         0.1397
     54 H18         5.7481   -8.8016   -7.6053 H         1 <0>         0.1413
     55 H19         4.0772   -7.0026   -7.4500 H         1 <0>         0.1476
     56 H20         9.9896   -7.4903   -6.1552 H         1 <0>         0.1393
     57 H21        11.6142   -9.3306   -6.3242 H         1 <0>         0.1624
     58 H22         8.7296  -11.9006   -7.8411 H         1 <0>         0.1635
     59 H23         7.0020  -10.1532   -7.7136 H         1 <0>         0.1410
     60 H24         4.9987   -2.9770    1.7273 H         1 <0>         0.4584
@<TRIPOS>BOND
     1    1    6 ar
     2    1    2 ar
     3    1   38 1
     4    2    3 ar
     5    2   39 1
     6    3    4 ar
     7    3   40 1
     8    4    9 1
     9    4    5 ar
    10    5    6 ar
    11    5    7 1
    12    6   41 1
    13    7    8 2
    14    7   42 1
    15    8    9 1
    16    8   10 1
    17   10   11 1
    18   10   19 1
    19   10   12 1
    20   12   13 2
    21   12   20 1
    22   13   18 ar
    23   13   14 ar
    24   14   15 ar
    25   14   43 1
    26   15   16 ar
    27   15   44 1
    28   16   17 ar
    29   16   45 1
    30   17   18 ar
    31   17   46 1
    32   18   19 2
    33   19   60 1
    34   20   21 1
    35   20   47 1
    36   20   48 1
    37   21   22 1
    38   21   49 1
    39   21   50 1
    40   22   23 1
    41   22   51 1
    42   23   24 2
    43   23   25 2
    44   23   26 1
    45   26   31 ar
    46   26   27 ar
    47   27   28 ar
    48   27   52 1
    49   28   29 ar
    50   28   53 1
    51   29   30 ar
    52   29   32 1
    53   30   31 ar
    54   30   54 1
    55   31   55 1
    56   32   37 ar
    57   32   33 ar
    58   33   34 ar
    59   33   56 1
    60   34   35 ar
    61   34   57 1
    62   35   36 ar
    63   36   37 ar
    64   36   58 1
    65   37   59 1
@<TRIPOS>MOLECULE
ZINC06197707
   72    75     0     0     0
SMALL
USER_CHARGES
1-[(6-ethyl-2-oxo-1H-quinolin-3-yl)methyl]-1-(3-morpholinopropyl)-3-(1-phenylethyl)thiourea
@<TRIPOS>ATOM
      1 C1          5.2469    4.5490   -1.4671 C.3       1 <0>        -0.1499
      2 C2          4.8263    4.2748   -0.0218 C.3       1 <0>        -0.0865
      3 C3          3.5414    3.4874   -0.0134 C.ar      1 <0>        -0.1066
      4 C4          2.3248    4.1562    0.0027 C.ar      1 <0>        -0.0519
      5 C5          1.1377    3.4565    0.0111 C.ar      1 <0>        -0.1628
      6 C6          1.1563    2.0654    0.0021 C.ar      1 <0>         0.1806
      7 C7          2.3916    1.3909   -0.0132 C.ar      1 <0>        -0.1375
      8 C8          3.5841    2.1221   -0.0211 C.ar      1 <0>        -0.0450
      9 C9          2.4006   -0.0731   -0.0217 C.2       1 <0>         0.0456
     10 C10         1.2134   -0.7282   -0.0139 C.2       1 <0>        -0.2467
     11 C11         0.0021   -0.0041    0.0020 C.2       1 <0>         0.5515
     12 O1         -1.0539   -0.6127    0.0088 O.2       1 <0>        -0.5635
     13 N1         -0.0162    1.3403    0.0094 N.am      1 <0>        -0.6302
     14 H1         -0.8929    1.8212    0.0204 H         1 <0>         0.4219
     15 C12         1.1873   -2.2350   -0.0227 C.3       1 <0>         0.1795
     16 N2          1.0716   -2.7294    1.3514 N.pl3     1 <0>        -0.5638
     17 C13        -0.2510   -2.9542    1.9401 C.3       1 <0>         0.0915
     18 C14        -0.6976   -4.3900    1.6577 C.3       1 <0>        -0.1722
     19 C15        -2.0789   -4.6247    2.2725 C.3       1 <0>        -0.0015
     20 C16        -2.7321   -6.2121    0.5635 C.3       1 <0>        -0.0433
     21 C17        -3.1185   -7.6733    0.3196 C.3       1 <0>         0.0355
     22 O2         -4.2739   -7.9922    1.0998 O.3       1 <0>        -0.3555
     23 C18        -4.0904   -7.8009    2.5052 C.3       1 <0>         0.0347
     24 C19        -3.7138   -6.3410    2.7712 C.3       1 <0>        -0.0388
     25 C20         2.1818   -2.9776    2.0741 C.2       1 <0>         0.5570
     26 S1          3.7274   -2.7150    1.3862 S.2       1 <0>        -0.6146
     27 N3          2.0754   -3.4325    3.3383 N.pl3     1 <0>        -0.6785
     28 C21         3.2822   -3.7022    4.1238 C.3       1 <0>         0.1837
     29 H2          4.0643   -4.0853    3.4683 H         1 <0>         0.1274
     30 C22         3.7599   -2.4081    4.7855 C.3       1 <0>        -0.1597
     31 C23         2.9718   -4.7248    5.1863 C.ar      1 <0>        -0.0973
     32 C24         1.7728   -4.6672    5.8719 C.ar      1 <0>        -0.1252
     33 C25         1.4863   -5.6078    6.8435 C.ar      1 <0>        -0.1176
     34 C26         2.4026   -6.6006    7.1359 C.ar      1 <0>        -0.1138
     35 C27         3.6038   -6.6551    6.4541 C.ar      1 <0>        -0.1085
     36 C28         3.8885   -5.7171    5.4794 C.ar      1 <0>        -0.0994
     37 H3          4.4671    5.1207   -1.9702 H         1 <0>         0.0562
     38 H4          6.1763    5.1185   -1.4732 H         1 <0>         0.0622
     39 H5          5.3970    3.6031   -1.9875 H         1 <0>         0.0568
     40 H6          4.6762    5.2207    0.4986 H         1 <0>         0.0755
     41 H7          5.6061    3.7031    0.4813 H         1 <0>         0.0760
     42 H8          2.3086    5.2360    0.0090 H         1 <0>         0.1353
     43 H9          0.1964    3.9859    0.0243 H         1 <0>         0.1357
     44 H10         4.5346    1.6094   -0.0336 H         1 <0>         0.1390
     45 H11         3.3323   -0.6193   -0.0335 H         1 <0>         0.1677
     46 H12         0.3338   -2.5801   -0.6062 H         1 <0>         0.0979
     47 H13         2.1081   -2.6117   -0.4681 H         1 <0>         0.1260
     48 H14        -0.2012   -2.7943    3.0172 H         1 <0>         0.0798
     49 H15        -0.9666   -2.2583    1.5022 H         1 <0>         0.1250
     50 H16        -0.7474   -4.5498    0.5806 H         1 <0>         0.1005
     51 H17         0.0180   -5.0859    2.0956 H         1 <0>         0.0885
     52 H18        -2.0291   -4.4649    3.3495 H         1 <0>         0.1320
     53 H19        -2.7945   -3.9288    1.8346 H         1 <0>         0.1399
     54 H20        -3.5370   -5.5610    0.2224 H         1 <0>         0.1429
     55 H21        -1.8189   -5.9807    0.0152 H         1 <0>         0.1409
     56 H22        -2.2923   -8.3218    0.6110 H         1 <0>         0.0808
     57 H23        -3.3414   -7.8193   -0.7373 H         1 <0>         0.1428
     58 H24        -3.2924   -8.4530    2.8601 H         1 <0>         0.0808
     59 H25        -5.0161   -8.0392    3.0289 H         1 <0>         0.1425
     60 H26        -3.5172   -6.2037    3.8344 H         1 <0>         0.1408
     61 H27        -4.5344   -5.6919    2.4654 H         1 <0>         0.1418
     62 H28         1.1997   -3.5813    3.7280 H         1 <0>         0.3900
     63 H29         4.6578   -2.6087    5.3699 H         1 <0>         0.0779
     64 H30         3.9843   -1.6684    4.0170 H         1 <0>         0.0796
     65 H31         2.9778   -2.0250    5.4410 H         1 <0>         0.0539
     66 H32         1.0585   -3.8893    5.6460 H         1 <0>         0.1109
     67 H33         0.5476   -5.5654    7.3760 H         1 <0>         0.1230
     68 H34         2.1799   -7.3339    7.8969 H         1 <0>         0.1267
     69 H35         4.3197   -7.4308    6.6825 H         1 <0>         0.1302
     70 H36         4.8270   -5.7597    4.9467 H         1 <0>         0.1311
     71 N4         -2.4887   -6.0211    2.0090 N.4       1 <0>        -0.3951
     72 H37        -1.7355   -6.6519    2.3073 H         1 <0>         0.4261
@<TRIPOS>BOND
     1    1    2 1
     2    1   37 1
     3    1   38 1
     4    1   39 1
     5    2    3 1
     6    2   40 1
     7    2   41 1
     8    3    8 ar
     9    3    4 ar
    10    4    5 ar
    11    4   42 1
    12    5    6 ar
    13    5   43 1
    14    6   13 1
    15    6    7 ar
    16    7    8 ar
    17    7    9 1
    18    8   44 1
    19    9   10 2
    20    9   45 1
    21   10   11 1
    22   10   15 1
    23   11   12 2
    24   11   13 am
    25   13   14 1
    26   15   16 1
    27   15   46 1
    28   15   47 1
    29   16   17 1
    30   16   25 1
    31   17   18 1
    32   17   48 1
    33   17   49 1
    34   18   19 1
    35   18   50 1
    36   18   51 1
    37   19   52 1
    38   19   53 1
    39   19   71 1
    40   20   21 1
    41   20   54 1
    42   20   55 1
    43   20   71 1
    44   21   22 1
    45   21   56 1
    46   21   57 1
    47   22   23 1
    48   23   24 1
    49   23   58 1
    50   23   59 1
    51   24   60 1
    52   24   61 1
    53   24   71 1
    54   25   26 2
    55   25   27 1
    56   27   28 1
    57   27   62 1
    58   28   29 1
    59   28   30 1
    60   28   31 1
    61   30   63 1
    62   30   64 1
    63   30   65 1
    64   31   36 ar
    65   31   32 ar
    66   32   33 ar
    67   32   66 1
    68   33   34 ar
    69   33   67 1
    70   34   35 ar
    71   34   68 1
    72   35   36 ar
    73   35   69 1
    74   36   70 1
    75   71   72 1
@<TRIPOS>MOLECULE
ZINC20504071
   67    71     0     0     0
SMALL
USER_CHARGES
methyl (2R,4S,6S,12bR)-2-(2-methoxyethylamino)-4-[4-(trifluoromethyl)phenyl]-1,2,3,4,6,7,12,12b-octahydroquinolizino[1,2-b]indole-6-carboxylate
@<TRIPOS>ATOM
      1 C1         -1.7440    5.7611    3.4325 C.3       1 <0>         0.0273
      2 O1         -1.1814    5.1208    2.2856 O.3       1 <0>        -0.4022
      3 C2         -1.8585    3.9238    1.8975 C.3       1 <0>         0.0260
      4 C3         -1.1742    3.3271    0.6660 C.3       1 <0>         0.0025
      5 N1          0.1882    2.9060    1.0189 N.4       1 <0>        -0.5469
      6 C4          0.8775    2.3267   -0.1419 C.3       1 <0>         0.0368
      7 H1          0.5376    2.8787   -1.0306 H         1 <0>         0.1461
      8 C5          0.5201    0.8430   -0.2600 C.3       1 <0>        -0.1311
      9 C6          1.0207    0.0967    0.9797 C.3       1 <0>         0.1110
     10 H2          0.5632    0.4977    1.8961 H         1 <0>         0.0684
     11 N2          2.4737    0.2671    1.0941 N.3       1 <0>        -0.4972
     12 C7          3.0391   -0.5730    2.1552 C.3       1 <0>         0.0901
     13 H3          2.5692   -1.5646    2.0782 H         1 <0>         0.1403
     14 C8          4.5613   -0.6649    1.9788 C.3       1 <0>        -0.0344
     15 C9          5.0963    0.7302    1.7755 C.2       1 <0>        -0.1472
     16 C10         6.4561    1.2123    1.8699 C.ar      1 <0>        -0.1033
     17 C11         7.6696    0.5832    2.1657 C.ar      1 <0>        -0.0641
     18 C12         8.7938    1.3712    2.1674 C.ar      1 <0>        -0.1440
     19 C13         8.7425    2.7276    1.8904 C.ar      1 <0>        -0.0900
     20 C14         7.5562    3.3762    1.5942 C.ar      1 <0>        -0.1336
     21 C15         6.3981    2.6016    1.5853 C.ar      1 <0>         0.0999
     22 N3          5.0911    2.9131    1.3400 N.pl3     1 <0>        -0.5908
     23 H4          4.8092    3.9472    1.0927 H         1 <0>         0.4386
     24 C16         4.3178    1.7906    1.4576 C.2       1 <0>         0.0636
     25 C17         2.8243    1.6834    1.2757 C.3       1 <0>         0.1224
     26 H5          2.3098    2.0606    2.1718 H         1 <0>         0.0973
     27 C18         2.3919    2.4716    0.0381 C.3       1 <0>        -0.1335
     28 C19         2.7248    0.0346    3.4980 C.2       1 <0>         0.4555
     29 O2          1.9288    0.9399    3.5801 O.2       1 <0>        -0.5373
     30 O3          3.3292   -0.4299    4.6029 O.3       1 <0>        -0.3412
     31 C20         2.9782    0.2028    5.8617 C.3       1 <0>         0.0307
     32 C21         0.6946   -1.3689    0.8505 C.ar      1 <0>        -0.0763
     33 C22         1.4908   -2.1882    0.0723 C.ar      1 <0>        -0.0946
     34 C23         1.1940   -3.5333   -0.0430 C.ar      1 <0>        -0.0659
     35 C24         0.0958   -4.0575    0.6129 C.ar      1 <0>        -0.1650
     36 C25        -0.7032   -3.2372    1.3873 C.ar      1 <0>        -0.0654
     37 C26        -0.4041   -1.8928    1.5057 C.ar      1 <0>        -0.1118
     38 C27        -0.2306   -5.5230    0.4834 C.3       1 <0>         0.5046
     39 F1         -1.0836   -5.7161   -0.6085 F         1 <0>        -0.1725
     40 F2          0.9497   -6.2480    0.2871 F         1 <0>        -0.1723
     41 F3         -0.8608   -5.9654    1.6515 F         1 <0>        -0.1739
     42 H6         -1.1686    6.6694    3.6645 H         1 <0>         0.1013
     43 H7         -1.7069    5.0743    4.2910 H         1 <0>         0.0523
     44 H8         -2.7896    6.0324    3.2249 H         1 <0>         0.0563
     45 H9         -1.8237    3.1985    2.7238 H         1 <0>         0.0734
     46 H10        -2.9065    4.1566    1.6579 H         1 <0>         0.0990
     47 H11        -1.7474    2.4568    0.3137 H         1 <0>         0.1417
     48 H12        -1.1293    4.0837   -0.1312 H         1 <0>         0.1398
     49 H13         0.7613    3.7763    1.3712 H         1 <0>         0.4544
     50 H14        -0.5717    0.7339   -0.3375 H         1 <0>         0.1011
     51 H15         0.9953    0.4217   -1.1582 H         1 <0>         0.1292
     52 H16         5.0081   -1.1141    2.8780 H         1 <0>         0.0991
     53 H17         4.7919   -1.2898    1.1034 H         1 <0>         0.1015
     54 H18         7.7199   -0.4735    2.3831 H         1 <0>         0.1311
     55 H19         9.7486    0.9193    2.3922 H         1 <0>         0.1226
     56 H20         9.6592    3.2983    1.9061 H         1 <0>         0.1248
     57 H21         7.5295    4.4343    1.3797 H         1 <0>         0.1289
     58 H22         2.9062    2.0775   -0.8509 H         1 <0>         0.1280
     59 H23         2.6458    3.5340    0.1677 H         1 <0>         0.0947
     60 H24         3.5414   -0.2705    6.6795 H         1 <0>         0.1112
     61 H25         1.8997    0.0850    6.0431 H         1 <0>         0.0666
     62 H26         3.2276    1.2732    5.8162 H         1 <0>         0.0654
     63 H27         2.3466   -1.7779   -0.4432 H         1 <0>         0.1499
     64 H28         1.8180   -4.1741   -0.6483 H         1 <0>         0.1448
     65 H29        -1.5614   -3.6467    1.8995 H         1 <0>         0.1423
     66 H30        -1.0286   -1.2519    2.1105 H         1 <0>         0.1324
     67 H31         0.1432    2.1494    1.8161 H         1 <0>         0.4417
@<TRIPOS>BOND
     1    1    2 1
     2    1   42 1
     3    1   43 1
     4    1   44 1
     5    2    3 1
     6    3    4 1
     7    3   45 1
     8    3   46 1
     9    4    5 1
    10    4   47 1
    11    4   48 1
    12    5    6 1
    13    5   49 1
    14    5   67 1
    15    6    7 1
    16    6   27 1
    17    6    8 1
    18    8    9 1
    19    8   50 1
    20    8   51 1
    21    9   10 1
    22    9   11 1
    23    9   32 1
    24   11   25 1
    25   11   12 1
    26   12   13 1
    27   12   14 1
    28   12   28 1
    29   14   15 1
    30   14   52 1
    31   14   53 1
    32   15   24 2
    33   15   16 1
    34   16   21 ar
    35   16   17 ar
    36   17   18 ar
    37   17   54 1
    38   18   19 ar
    39   18   55 1
    40   19   20 ar
    41   19   56 1
    42   20   21 ar
    43   20   57 1
    44   21   22 1
    45   22   23 1
    46   22   24 1
    47   24   25 1
    48   25   26 1
    49   25   27 1
    50   27   58 1
    51   27   59 1
    52   28   29 2
    53   28   30 1
    54   30   31 1
    55   31   60 1
    56   31   61 1
    57   31   62 1
    58   32   37 ar
    59   32   33 ar
    60   33   34 ar
    61   33   63 1
    62   34   35 ar
    63   34   64 1
    64   35   36 ar
    65   35   38 1
    66   36   37 ar
    67   36   65 1
    68   37   66 1
    69   38   39 1
    70   38   40 1
    71   38   41 1
@<TRIPOS>MOLECULE
ZINC34756500
   66    70     0     0     0
SMALL
USER_CHARGES

@<TRIPOS>ATOM
      1 C1         -0.0397    1.3728    0.0666 C.ar      1 <0>        -0.1004
      2 C2          1.1450    2.0850    0.0643 C.ar      1 <0>        -0.1191
      3 C3          2.3541    1.4154    0.0409 C.ar      1 <0>        -0.0981
      4 C4          2.3785    0.0334    0.0203 C.ar      1 <0>        -0.1288
      5 C5          1.1938   -0.6789    0.0235 C.ar      1 <0>        -0.0984
      6 C6         -0.0153   -0.0092    0.0455 C.ar      1 <0>        -0.1192
      7 C7          3.6965   -0.6967   -0.0062 C.3       1 <0>         0.1617
      8 N1          4.1402   -0.9536    1.3662 N.am      1 <0>        -0.6974
      9 C8          5.3021   -1.5991    1.5891 C.2       1 <0>         0.5002
     10 O1          5.9804   -1.9674    0.6536 O.2       1 <0>        -0.5274
     11 C9          5.7584   -1.8634    3.0008 C.3       1 <0>        -0.0317
     12 N2          7.0433   -2.5750    2.9750 N.4       1 <0>        -0.3666
     13 C10         8.0688   -1.7086    2.3802 C.3       1 <0>        -0.0330
     14 C11         9.3808   -2.4888    2.2476 C.3       1 <0>         0.1258
     15 N3          9.7360   -3.0318    3.5678 N.pl3     1 <0>        -0.6604
     16 C12         8.7081   -3.7782    4.3098 C.3       1 <0>         0.1210
     17 C13         7.4278   -2.9371    4.3451 C.3       1 <0>        -0.0234
     18 C14        11.0005   -2.8463    4.0963 C.ar      1 <0>         0.4756
     19 C15        11.9990   -3.8489    3.9424 C.ar      1 <0>        -0.1855
     20 C16        11.8984   -5.1445    3.2663 C.2       1 <0>        -0.0940
     21 C17        13.0015   -5.9189    3.2613 C.2       1 <0>        -0.1224
     22 S1         14.2254   -4.9867    4.1423 S.3       1 <0>         0.1339
     23 C18        13.2500   -3.5538    4.5189 C.ar      1 <0>         0.1327
     24 N4         13.4670   -2.4199    5.1573 N.ar      1 <0>        -0.4860
     25 C19        12.4983   -1.5211    5.2706 C.ar      1 <0>         0.3115
     26 N5         11.2971   -1.7333    4.7454 N.ar      1 <0>        -0.5168
     27 S2         12.8130   -0.0144    6.1282 S.3       1 <0>         0.1110
     28 C20        14.5438   -0.1605    6.6514 C.3       1 <0>        -0.1602
     29 C21        14.9466    1.0797    7.4068 C.2       1 <0>         0.5384
     30 O2         14.1451    1.9741    7.5755 O.2       1 <0>        -0.5257
     31 N6         16.1976    1.1949    7.8949 N.am      1 <0>        -0.8425
     32 C22        13.1555   -7.2755    2.6438 C.3       1 <0>        -0.0483
     33 C23        11.7573   -7.8273    2.3311 C.3       1 <0>        -0.1152
     34 C24        10.9502   -6.7408    1.6145 C.3       1 <0>        -0.1264
     35 C25        10.6122   -5.6151    2.5927 C.3       1 <0>        -0.0554
     36 H1         -0.9843    1.8959    0.0894 H         1 <0>         0.1290
     37 H2          1.1260    3.1648    0.0804 H         1 <0>         0.1290
     38 H3          3.2797    1.9719    0.0384 H         1 <0>         0.1244
     39 H4          1.2128   -1.7586    0.0071 H         1 <0>         0.1244
     40 H5         -0.9409   -0.5657    0.0476 H         1 <0>         0.1289
     41 H6          3.5769   -1.6436   -0.5326 H         1 <0>         0.0881
     42 H7          4.4395   -0.0867   -0.5200 H         1 <0>         0.0879
     43 H8          3.5977   -0.6590    2.1144 H         1 <0>         0.4122
     44 H9          5.8781   -0.9164    3.5273 H         1 <0>         0.1600
     45 H10         5.0155   -2.4734    3.5147 H         1 <0>         0.1614
     46 H11         7.7399   -1.3803    1.3943 H         1 <0>         0.1558
     47 H12         8.2256   -0.8396    3.0192 H         1 <0>         0.1332
     48 H13         9.2509   -3.3061    1.5382 H         1 <0>         0.0924
     49 H14        10.1703   -1.8216    1.9015 H         1 <0>         0.1166
     50 H15         8.5102   -4.7257    3.8087 H         1 <0>         0.0922
     51 H16         9.0528   -3.9635    5.3271 H         1 <0>         0.1182
     52 H17         7.6040   -2.0310    4.9247 H         1 <0>         0.1383
     53 H18         6.6266   -3.5141    4.8070 H         1 <0>         0.1425
     54 H19        14.6558   -1.0316    7.2970 H         1 <0>         0.1288
     55 H20        15.1803   -0.2743    5.7739 H         1 <0>         0.1288
     56 H21        16.8387    0.4796    7.7599 H         1 <0>         0.4069
     57 H22        16.4569    1.9932    8.3811 H         1 <0>         0.4125
     58 H23        13.7332   -7.1962    1.7228 H         1 <0>         0.0940
     59 H24        13.6651   -7.9405    3.3411 H         1 <0>         0.0917
     60 H25        11.8451   -8.7023    1.6871 H         1 <0>         0.0813
     61 H26        11.2567   -8.1024    3.2595 H         1 <0>         0.0703
     62 H27        11.5371   -6.3390    0.7885 H         1 <0>         0.0694
     63 H28        10.0276   -7.1719    1.2258 H         1 <0>         0.0732
     64 H29         9.9180   -5.9834    3.3480 H         1 <0>         0.0745
     65 H30        10.1588   -4.7849    2.0511 H         1 <0>         0.0766
     66 H31         6.9512   -3.4128    2.4203 H         1 <0>         0.4283
@<TRIPOS>BOND
     1    1    6 ar
     2    1    2 ar
     3    1   36 1
     4    2    3 ar
     5    2   37 1
     6    3    4 ar
     7    3   38 1
     8    4    5 ar
     9    4    7 1
    10    5    6 ar
    11    5   39 1
    12    6   40 1
    13    7    8 1
    14    7   41 1
    15    7   42 1
    16    8    9 am
    17    8   43 1
    18    9   10 2
    19    9   11 1
    20   11   12 1
    21   11   44 1
    22   11   45 1
    23   12   17 1
    24   12   13 1
    25   12   66 1
    26   13   14 1
    27   13   46 1
    28   13   47 1
    29   14   15 1
    30   14   48 1
    31   14   49 1
    32   15   16 1
    33   15   18 1
    34   16   17 1
    35   16   50 1
    36   16   51 1
    37   17   52 1
    38   17   53 1
    39   18   26 ar
    40   18   19 ar
    41   19   23 ar
    42   19   20 1
    43   20   35 1
    44   20   21 2
    45   21   22 1
    46   21   32 1
    47   22   23 1
    48   23   24 ar
    49   24   25 ar
    50   25   26 ar
    51   25   27 1
    52   27   28 1
    53   28   29 1
    54   28   54 1
    55   28   55 1
    56   29   30 2
    57   29   31 am
    58   31   56 1
    59   31   57 1
    60   32   33 1
    61   32   58 1
    62   32   59 1
    63   33   34 1
    64   33   60 1
    65   33   61 1
    66   34   35 1
    67   34   62 1
    68   34   63 1
    69   35   64 1
    70   35   65 1
@<TRIPOS>MOLECULE
ZINC39533891
   72    76     0     0     0
SMALL
USER_CHARGES

@<TRIPOS>ATOM
      1 C1         -0.7523    0.3097    0.6800 C.ar      1 <0>        -0.1152
      2 C2          0.3417    0.9248    0.1007 C.ar      1 <0>        -0.1212
      3 C3          1.5460    0.2521    0.0113 C.ar      1 <0>        -0.1171
      4 C4          1.6564   -1.0356    0.5018 C.ar      1 <0>        -0.0885
      5 C5          0.5626   -1.6504    1.0820 C.ar      1 <0>        -0.0954
      6 C6         -0.6421   -0.9782    1.1700 C.ar      1 <0>        -0.1176
      7 C7          2.9690   -1.7694    0.4035 C.3       1 <0>         0.0984
      8 N1          3.7689   -1.5053    1.6070 N.3       1 <0>        -0.6745
      9 C8          5.0585   -2.2061    1.5462 C.3       1 <0>         0.0675
     10 C9          5.8615   -1.9075    2.8139 C.3       1 <0>         0.1316
     11 H1          5.3459   -2.3268    3.6778 H         1 <0>         0.1172
     12 C10         7.2313   -2.5249    2.6979 C.ar      1 <0>        -0.1456
     13 C11         7.7322   -3.2904    3.7355 C.ar      1 <0>        -0.0977
     14 C12         8.9861   -3.8582    3.6346 C.ar      1 <0>        -0.1075
     15 C13         9.7477   -3.6592    2.4850 C.ar      1 <0>        -0.0185
     16 C14         9.2383   -2.8872    1.4429 C.ar      1 <0>        -0.1126
     17 C15         7.9808   -2.3287    1.5520 C.ar      1 <0>        -0.1149
     18 C16        11.0968   -4.2667    2.3710 C.ar      1 <0>        -0.0656
     19 C17        11.6041   -5.0431    3.4109 C.ar      1 <0>        -0.1050
     20 C18        12.8592   -5.6062    3.2994 C.ar      1 <0>        -0.1158
     21 C19        13.6134   -5.4007    2.1582 C.ar      1 <0>        -0.1074
     22 C20        13.1149   -4.6305    1.1231 C.ar      1 <0>        -0.1173
     23 C21        11.8584   -4.0677    1.2213 C.ar      1 <0>        -0.1066
     24 N2          5.9921   -0.4537    2.9796 N.3       1 <0>        -0.5072
     25 C22         6.7250    0.1412    1.8531 C.3       1 <0>        -0.0037
     26 C23         6.7872    1.6595    2.0337 C.3       1 <0>        -0.0024
     27 N3          7.4615    1.9748    3.3000 N.4       1 <0>        -0.4838
     28 C24         6.7046    1.3951    4.4173 C.3       1 <0>        -0.5299
     29 H2          5.6935    1.8021    4.4212 H         1 <0>         0.2060
     30 C25         6.6417   -0.1254    4.2565 C.3       1 <0>         0.0426
     31 S1          7.5271    1.8041    5.9815 S.o2      1 <0>         2.5833
     32 O1          6.7171    1.4061    7.0791 O.2       1 <0>        -0.8800
     33 O2          8.8990    1.4383    5.9234 O.2       1 <0>        -0.8788
     34 O3          7.5327    3.3252    6.0345 O.3       1 <0>        -0.6460
     35 C26         6.3246    3.8724    6.3312 C.ar      1 <0>         0.0300
     36 C27         5.4362    4.1885    5.3136 C.ar      1 <0>        -0.1374
     37 C28         4.2086    4.7442    5.6179 C.ar      1 <0>        -0.0926
     38 C29         3.8653    4.9858    6.9353 C.ar      1 <0>        -0.0797
     39 C30         4.7491    4.6720    7.9513 C.ar      1 <0>        -0.0898
     40 C31         5.9754    4.1105    7.6526 C.ar      1 <0>        -0.0742
     41 H3         -1.6920    0.8370    0.7538 H         1 <0>         0.1233
     42 H4          0.2555    1.9309   -0.2825 H         1 <0>         0.1212
     43 H5          2.4005    0.7324   -0.4419 H         1 <0>         0.1136
     44 H6          0.6488   -2.6566    1.4648 H         1 <0>         0.1234
     45 H7         -1.4967   -1.4586    1.6229 H         1 <0>         0.1246
     46 H8          2.7814   -2.8399    0.3196 H         1 <0>         0.0835
     47 H9          3.5124   -1.4257   -0.4766 H         1 <0>         0.0378
     48 H10         3.9019   -0.5143    1.7425 H         1 <0>         0.3472
     49 H11         4.8855   -3.2796    1.4702 H         1 <0>         0.0908
     50 H12         5.6164   -1.8654    0.6740 H         1 <0>         0.0341
     51 H13         7.1411   -3.4437    4.6263 H         1 <0>         0.1299
     52 H14         9.3763   -4.4554    4.4455 H         1 <0>         0.1329
     53 H15         9.8246   -2.7294    0.5497 H         1 <0>         0.1301
     54 H16         7.5830   -1.7341    0.7430 H         1 <0>         0.1254
     55 H17        11.0164   -5.2037    4.3027 H         1 <0>         0.1260
     56 H18        13.2534   -6.2082    4.1048 H         1 <0>         0.1289
     57 H19        14.5952   -5.8429    2.0753 H         1 <0>         0.1279
     58 H20        13.7080   -4.4729    0.2344 H         1 <0>         0.1278
     59 H21        11.4684   -3.4702    0.4107 H         1 <0>         0.1237
     60 H22         7.7367   -0.2633    1.8232 H         1 <0>         0.0849
     61 H23         6.2115   -0.0934    0.9207 H         1 <0>         0.1286
     62 H24         7.3427    2.1013    1.2064 H         1 <0>         0.1490
     63 H25         5.7757    2.0652    2.0498 H         1 <0>         0.1448
     64 H26         8.3938    1.5892    3.2895 H         1 <0>         0.4363
     65 H27         6.0674   -0.5545    5.0776 H         1 <0>         0.1405
     66 H28         7.6520   -0.5343    4.2663 H         1 <0>         0.0840
     67 H29         5.7042    4.0006    4.2844 H         1 <0>         0.1249
     68 H30         3.5167    4.9905    4.8261 H         1 <0>         0.1480
     69 H31         2.9052    5.4206    7.1711 H         1 <0>         0.1471
     70 H32         4.4787    4.8620    8.9795 H         1 <0>         0.1513
     71 H33         6.6637    3.8615    8.4468 H         1 <0>         0.1488
     72 H34         7.5134    2.9762    3.4128 H         1 <0>         0.4327
@<TRIPOS>BOND
     1    1    6 ar
     2    1    2 ar
     3    1   41 1
     4    2    3 ar
     5    2   42 1
     6    3    4 ar
     7    3   43 1
     8    4    5 ar
     9    4    7 1
    10    5    6 ar
    11    5   44 1
    12    6   45 1
    13    7    8 1
    14    7   46 1
    15    7   47 1
    16    8    9 1
    17    8   48 1
    18    9   10 1
    19    9   49 1
    20    9   50 1
    21   10   11 1
    22   10   12 1
    23   10   24 1
    24   12   17 ar
    25   12   13 ar
    26   13   14 ar
    27   13   51 1
    28   14   15 ar
    29   14   52 1
    30   15   16 ar
    31   15   18 1
    32   16   17 ar
    33   16   53 1
    34   17   54 1
    35   18   23 ar
    36   18   19 ar
    37   19   20 ar
    38   19   55 1
    39   20   21 ar
    40   20   56 1
    41   21   22 ar
    42   21   57 1
    43   22   23 ar
    44   22   58 1
    45   23   59 1
    46   24   30 1
    47   24   25 1
    48   25   26 1
    49   25   60 1
    50   25   61 1
    51   26   27 1
    52   26   62 1
    53   26   63 1
    54   27   28 1
    55   27   64 1
    56   27   72 1
    57   28   29 1
    58   28   30 1
    59   28   31 1
    60   30   65 1
    61   30   66 1
    62   31   32 2
    63   31   33 2
    64   31   34 1
    65   34   35 1
    66   35   40 ar
    67   35   36 ar
    68   36   37 ar
    69   36   67 1
    70   37   38 ar
    71   37   68 1
    72   38   39 ar
    73   38   69 1
    74   39   40 ar
    75   39   70 1
    76   40   71 1
@<TRIPOS>MOLECULE
ZINC39987057
   65    68     0     0     0
SMALL
USER_CHARGES

@<TRIPOS>ATOM
      1 C1         -1.4566    0.9388   -0.6897 C.3       1 <0>        -0.1493
      2 C2         -1.2899   -0.5055   -1.1662 C.3       1 <0>        -0.0831
      3 C3         -0.0762   -0.6046   -2.0541 C.ar      1 <0>        -0.1174
      4 C4         -0.2158   -0.5110   -3.4095 C.ar      1 <0>         0.0200
      5 C5          0.9098   -0.6028   -4.2290 C.ar      1 <0>        -0.2046
      6 C6          0.7963   -0.5220   -5.6966 C.2       1 <0>         0.4367
      7 O1         -0.2244   -0.1477   -6.2452 O.2       1 <0>        -0.4012
      8 C7          1.9992   -0.9233   -6.4649 C.2       1 <0>        -0.1260
      9 C8          3.1857   -1.0735   -5.7747 C.2       1 <0>         0.1715
     10 O2          3.2787   -0.8565   -4.4558 O.3       1 <0>        -0.2034
     11 C9          2.1887   -0.7833   -3.6687 C.ar      1 <0>         0.1769
     12 C10         2.3108   -0.8799   -2.2885 C.ar      1 <0>        -0.1987
     13 C11         1.1847   -0.7855   -1.4884 C.ar      1 <0>         0.2058
     14 O3          1.3093   -0.8751   -0.1400 O.3       1 <0>        -0.4851
     15 C12         3.6669   -1.0811   -1.6628 C.3       1 <0>         0.0478
     16 N1          4.3446    0.2160   -1.5348 N.4       1 <0>        -0.3816
     17 C13         3.6101    1.0604   -0.5833 C.3       1 <0>        -0.0069
     18 C14         4.2426    2.4529   -0.5435 C.3       1 <0>         0.0466
     19 O4          4.0805    3.0862   -1.8142 O.3       1 <0>        -0.5762
     20 C15         5.7146    0.0068   -1.0477 C.3       1 <0>        -0.0111
     21 C16         6.5233   -0.7448   -2.1070 C.3       1 <0>         0.0441
     22 O5          6.6155    0.0518   -3.2898 O.3       1 <0>        -0.5726
     23 C17         4.3946   -1.4886   -6.5163 C.2       1 <0>         0.5431
     24 O6          4.6655   -2.6675   -6.6247 O.2       1 <0>        -0.4512
     25 O7          5.1964   -0.5589   -7.0722 O.3       1 <0>        -0.3212
     26 C18         6.3478   -1.0315   -7.7744 C.3       1 <0>         0.0651
     27 C19         7.1297    0.1597   -8.3316 C.3       1 <0>        -0.1536
     28 C20         1.9309   -1.1539   -7.9192 C.2       1 <0>         0.1557
     29 N2          2.9085   -1.4162   -8.7616 N.2       1 <0>        -0.4834
     30 C21         2.7025   -1.6065  -10.0719 C.ar      1 <0>         0.0726
     31 C22         3.6606   -1.8924  -11.0755 C.ar      1 <0>        -0.0506
     32 C23         3.2840   -2.0578  -12.3708 C.ar      1 <0>        -0.1108
     33 C24         1.9561   -1.9548  -12.7638 C.ar      1 <0>        -0.0754
     34 C25         0.9885   -1.6774  -11.8167 C.ar      1 <0>        -0.0701
     35 C26         1.3572   -1.5082  -10.5043 C.ar      1 <0>        -0.1444
     36 S1          0.4987   -1.1570   -8.9891 S.3       1 <0>         0.0892
     37 H1         -0.5714    1.2413   -0.1302 H         1 <0>         0.0585
     38 H2         -1.5827    1.5937   -1.5519 H         1 <0>         0.0584
     39 H3         -2.3344    1.0105   -0.0474 H         1 <0>         0.0691
     40 H4         -1.1637   -1.1603   -0.3040 H         1 <0>         0.0840
     41 H5         -2.1751   -0.8079   -1.7257 H         1 <0>         0.0854
     42 H6         -1.1935   -0.3669   -3.8453 H         1 <0>         0.1640
     43 H7          1.2415   -1.7769    0.2023 H         1 <0>         0.4134
     44 H8          3.5489   -1.5283   -0.6758 H         1 <0>         0.1462
     45 H9          4.2630   -1.7419   -2.2921 H         1 <0>         0.1407
     46 H10         2.5699    1.1426   -0.8983 H         1 <0>         0.1367
     47 H11         3.6548    0.6125    0.4095 H         1 <0>         0.1462
     48 H12         3.7549    3.0517    0.2258 H         1 <0>         0.0947
     49 H13         5.3046    2.3632   -0.3151 H         1 <0>         0.0706
     50 H14         4.4586    3.9749   -1.8618 H         1 <0>         0.4073
     51 H15         6.1816    0.9718   -0.8511 H         1 <0>         0.1403
     52 H16         5.6880   -0.5781   -0.1283 H         1 <0>         0.1449
     53 H17         7.5243   -0.9455   -1.7252 H         1 <0>         0.0966
     54 H18         6.0281   -1.6871   -2.3413 H         1 <0>         0.0698
     55 H19         7.1160   -0.3633   -4.0055 H         1 <0>         0.4055
     56 H20         6.9832   -1.5960   -7.0920 H         1 <0>         0.0714
     57 H21         6.0336   -1.6760   -8.5953 H         1 <0>         0.0775
     58 H22         8.0080   -0.2007   -8.8672 H         1 <0>         0.0870
     59 H23         6.4943    0.7243   -9.0140 H         1 <0>         0.0703
     60 H24         7.4440    0.8042   -7.5107 H         1 <0>         0.0681
     61 H25         4.7033   -1.9797  -10.8080 H         1 <0>         0.1325
     62 H26         4.0371   -2.2747  -13.1138 H         1 <0>         0.1400
     63 H27         1.6821   -2.0898  -13.7997 H         1 <0>         0.1456
     64 H28        -0.0486   -1.5937  -12.1061 H         1 <0>         0.1400
     65 H29         4.3735    0.6706   -2.4352 H         1 <0>         0.4381
@<TRIPOS>BOND
     1    1    2 1
     2    1   37 1
     3    1   38 1
     4    1   39 1
     5    2    3 1
     6    2   40 1
     7    2   41 1
     8    3   13 ar
     9    3    4 ar
    10    4    5 ar
    11    4   42 1
    12    5   11 ar
    13    5    6 1
    14    6    7 2
    15    6    8 1
    16    8    9 2
    17    8   28 1
    18    9   10 1
    19    9   23 1
    20   10   11 1
    21   11   12 ar
    22   12   13 ar
    23   12   15 1
    24   13   14 1
    25   14   43 1
    26   15   16 1
    27   15   44 1
    28   15   45 1
    29   16   17 1
    30   16   20 1
    31   16   65 1
    32   17   18 1
    33   17   46 1
    34   17   47 1
    35   18   19 1
    36   18   48 1
    37   18   49 1
    38   19   50 1
    39   20   21 1
    40   20   51 1
    41   20   52 1
    42   21   22 1
    43   21   53 1
    44   21   54 1
    45   22   55 1
    46   23   24 2
    47   23   25 1
    48   25   26 1
    49   26   27 1
    50   26   56 1
    51   26   57 1
    52   27   58 1
    53   27   59 1
    54   27   60 1
    55   28   36 1
    56   28   29 2
    57   29   30 1
    58   30   35 ar
    59   30   31 ar
    60   31   32 ar
    61   31   61 1
    62   32   33 ar
    63   32   62 1
    64   33   34 ar
    65   33   63 1
    66   34   35 ar
    67   34   64 1
    68   35   36 1
@<TRIPOS>MOLECULE
ZINC09598377
   72    76     0     0     0
SMALL
USER_CHARGES
N-[2-(3,5-dimethyl-1-piperidyl)-4-methyl-6-quinolyl]-N'-(2,5-dioxabicyclo[4.4.0]deca-7,9,11-trien-8-yl)butanediamide
@<TRIPOS>ATOM
      1 C1          6.7314  -11.5587    1.1000 C.3       1 <0>        -0.1466
      2 C2          8.0557  -10.8400    1.0727 C.ar      1 <0>         0.0994
      3 C3          9.2244  -11.5223    1.2314 C.ar      1 <0>        -0.1898
      4 C4         10.4448  -10.8330    1.2017 C.ar      1 <0>         0.4346
      5 C5          9.3812   -8.8056    0.8635 C.ar      1 <0>         0.1414
      6 C6          8.1171   -9.4441    0.8833 C.ar      1 <0>        -0.0780
      7 C7          6.9512   -8.6819    0.7156 C.ar      1 <0>        -0.0963
      8 C8          7.0516   -7.3200    0.5334 C.ar      1 <0>         0.1687
      9 C9          8.3036   -6.6961    0.5091 C.ar      1 <0>        -0.0409
     10 C10         9.4464   -7.4141    0.6749 C.ar      1 <0>        -0.1282
     11 N1          5.8915   -6.5548    0.3656 N.am      1 <0>        -0.6771
     12 C11         5.8242   -5.3110    0.8804 C.2       1 <0>         0.5227
     13 O1          6.7968   -4.8231    1.4164 O.2       1 <0>        -0.5141
     14 C12         4.5407   -4.5265    0.7900 C.3       1 <0>        -0.1258
     15 C13         4.7326   -3.1574    1.4456 C.3       1 <0>        -0.1262
     16 C14         3.4490   -2.3729    1.3552 C.2       1 <0>         0.5147
     17 O2          2.4765   -2.8608    0.8192 O.2       1 <0>        -0.5187
     18 N2          3.3818   -1.1292    1.8701 N.am      1 <0>        -0.6679
     19 C15         2.1616   -0.4409    1.8818 C.ar      1 <0>         0.1447
     20 C16         0.9723   -1.1383    2.0464 C.ar      1 <0>        -0.1138
     21 C17        -0.2311   -0.4603    2.0567 C.ar      1 <0>        -0.0931
     22 C18        -0.2557    0.9181    1.9034 C.ar      1 <0>         0.0406
     23 C19         0.9334    1.6193    1.7417 C.ar      1 <0>         0.0717
     24 C20         2.1409    0.9381    1.7293 C.ar      1 <0>        -0.1388
     25 O3          0.9298    2.9729    1.5984 O.3       1 <0>        -0.3060
     26 C21        -0.3168    3.5793    1.2408 C.3       1 <0>         0.0203
     27 C22        -1.4147    2.9826    2.1317 C.3       1 <0>         0.0195
     28 O4         -1.4525    1.5684    1.9080 O.3       1 <0>        -0.3056
     29 N3         11.6270  -11.5412    1.3639 N.pl3     1 <0>        -0.4695
     30 C23        11.6131  -12.3090    2.6156 C.3       1 <0>         0.0570
     31 C24        12.8641  -13.1872    2.6908 C.3       1 <0>        -0.0936
     32 H1         12.8716  -13.8835    1.8522 H         1 <0>         0.0940
     33 C25        14.1098  -12.2990    2.6288 C.3       1 <0>        -0.1225
     34 C26        14.0755  -11.4746    1.3390 C.3       1 <0>        -0.0853
     35 H2         14.9382  -10.8090    1.3088 H         1 <0>         0.0964
     36 C27        12.7894  -10.6460    1.3030 C.3       1 <0>         0.0194
     37 C28        14.1123  -12.4135    0.1315 C.3       1 <0>        -0.1513
     38 C29        12.8601  -13.9705    4.0051 C.3       1 <0>        -0.1516
     39 H3          6.4674  -11.8723    0.0900 H         1 <0>         0.1120
     40 H4          6.8065  -12.4345    1.7444 H         1 <0>         0.1001
     41 H5          5.9624  -10.8890    1.4851 H         1 <0>         0.0953
     42 H6          9.2105  -12.5919    1.3798 H         1 <0>         0.1852
     43 H7          5.9824   -9.1592    0.7288 H         1 <0>         0.1619
     44 H8          8.3630   -5.6280    0.3604 H         1 <0>         0.1659
     45 H9         10.4044   -6.9158    0.6575 H         1 <0>         0.1544
     46 H10         5.1360   -6.9197   -0.1212 H         1 <0>         0.4241
     47 H11         3.7470   -5.0679    1.3048 H         1 <0>         0.1144
     48 H12         4.2694   -4.3931   -0.2572 H         1 <0>         0.1145
     49 H13         5.5263   -2.6161    0.9308 H         1 <0>         0.1080
     50 H14         5.0039   -3.2909    2.4928 H         1 <0>         0.1090
     51 H15         4.1782   -0.7106    2.2324 H         1 <0>         0.4143
     52 H16         0.9881   -2.2116    2.1662 H         1 <0>         0.1431
     53 H17        -1.1551   -1.0048    2.1840 H         1 <0>         0.1408
     54 H18         3.0657    1.4810    1.6010 H         1 <0>         0.1387
     55 H19        -0.2603    4.6563    1.3987 H         1 <0>         0.1257
     56 H20        -0.5392    3.3725    0.1940 H         1 <0>         0.0802
     57 H21        -1.1889    3.1846    3.1787 H         1 <0>         0.0798
     58 H22        -2.3781    3.4212    1.8715 H         1 <0>         0.1254
     59 H23        11.5996  -11.6228    3.4624 H         1 <0>         0.0723
     60 H24        10.7244  -12.9395    2.6450 H         1 <0>         0.1052
     61 H25        15.0032  -12.9233    2.6385 H         1 <0>         0.0847
     62 H26        14.1240  -11.6294    3.4888 H         1 <0>         0.0695
     63 H27        12.7551  -10.0686    0.3791 H         1 <0>         0.0947
     64 H28        12.7705   -9.9677    2.1560 H         1 <0>         0.0732
     65 H29        14.0844  -11.8262   -0.7863 H         1 <0>         0.0562
     66 H30        15.0285  -13.0033    0.1577 H         1 <0>         0.0656
     67 H31        13.2502  -13.0797    0.1630 H         1 <0>         0.0671
     68 H32        12.8512  -13.2737    4.8433 H         1 <0>         0.0595
     69 H33        11.9731  -14.6026    4.0486 H         1 <0>         0.0635
     70 H34        13.7530  -14.5932    4.0597 H         1 <0>         0.0709
     71 N4         10.5643   -9.4940    1.0229 N.ar      1 <0>        -0.5429
     72 H35        11.4769   -9.0237    1.0072 H         1 <0>         0.4629
@<TRIPOS>BOND
     1    1    2 1
     2    1   39 1
     3    1   40 1
     4    1   41 1
     5    2    6 ar
     6    2    3 ar
     7    3    4 ar
     8    3   42 1
     9    4   29 1
    10    4   71 ar
    11    5   10 ar
    12    5    6 ar
    13    5   71 ar
    14    6    7 ar
    15    7    8 ar
    16    7   43 1
    17    8    9 ar
    18    8   11 1
    19    9   10 ar
    20    9   44 1
    21   10   45 1
    22   11   12 am
    23   11   46 1
    24   12   13 2
    25   12   14 1
    26   14   15 1
    27   14   47 1
    28   14   48 1
    29   15   16 1
    30   15   49 1
    31   15   50 1
    32   16   17 2
    33   16   18 am
    34   18   19 1
    35   18   51 1
    36   19   24 ar
    37   19   20 ar
    38   20   21 ar
    39   20   52 1
    40   21   22 ar
    41   21   53 1
    42   22   28 1
    43   22   23 ar
    44   23   24 ar
    45   23   25 1
    46   24   54 1
    47   25   26 1
    48   26   27 1
    49   26   55 1
    50   26   56 1
    51   27   28 1
    52   27   57 1
    53   27   58 1
    54   29   36 1
    55   29   30 1
    56   30   31 1
    57   30   59 1
    58   30   60 1
    59   31   32 1
    60   31   33 1
    61   31   38 1
    62   33   34 1
    63   33   61 1
    64   33   62 1
    65   34   35 1
    66   34   36 1
    67   34   37 1
    68   36   63 1
    69   36   64 1
    70   37   65 1
    71   37   66 1
    72   37   67 1
    73   38   68 1
    74   38   69 1
    75   38   70 1
    76   71   72 1
@<TRIPOS>MOLECULE
ZINC20828511
   68    73     0     0     0
SMALL
USER_CHARGES
methyl 3-[[2-[4-(9H-fluoren-9-yl)piperazin-1-yl]acetyl]amino]-5-methyl-1H-indole-2-carboxylate
@<TRIPOS>ATOM
      1 C1         -0.9340   13.0613    0.0962 C.3       1 <0>        -0.1122
      2 C2         -1.3645   13.4438   -1.2964 C.ar      1 <0>        -0.1192
      3 C3         -1.3058   14.7731   -1.6951 C.ar      1 <0>        -0.0667
      4 C4         -1.6856   15.1431   -2.9656 C.ar      1 <0>        -0.1363
      5 C5         -2.1480   14.1794   -3.8593 C.ar      1 <0>         0.1319
      6 C6         -2.2094   12.8346   -3.4487 C.ar      1 <0>        -0.1178
      7 C7         -1.8096   12.4812   -2.1562 C.ar      1 <0>        -0.0382
      8 C8         -2.7229   12.0722   -4.5892 C.2       1 <0>         0.1515
      9 C9         -2.9480   12.9813   -5.6022 C.2       1 <0>         0.0204
     10 N1         -2.5999   14.2478   -5.1562 N.pl3     1 <0>        -0.5728
     11 H1         -2.6397   15.2173   -5.6743 H         1 <0>         0.4632
     12 C10        -3.4528   12.6711   -6.8908 C.2       1 <0>         0.5364
     13 O1         -3.6318   11.5110   -7.2111 O.2       1 <0>        -0.5088
     14 O2         -3.7346   13.6627   -7.7618 O.3       1 <0>        -0.3497
     15 C11        -4.2398   13.2777   -9.0419 C.3       1 <0>         0.0313
     16 N2         -2.9456   10.7001   -4.6392 N.am      1 <0>        -0.6254
     17 C12        -2.1477    9.8622   -3.9479 C.2       1 <0>         0.4997
     18 O3         -1.2902   10.3079   -3.2152 O.2       1 <0>        -0.5077
     19 C13        -2.3212    8.3715   -4.0854 C.3       1 <0>        -0.0245
     20 N3         -1.3387    7.6840   -3.2368 N.4       1 <0>        -0.3884
     21 C14        -1.6261    6.2449   -3.1585 C.3       1 <0>         0.0024
     22 C15        -0.6308    5.5799   -2.2047 C.3       1 <0>         0.0233
     23 N4          0.7375    5.8153   -2.6864 N.3       1 <0>        -0.5194
     24 C16         1.0248    7.2544   -2.7647 C.3       1 <0>         0.0207
     25 C17         0.0296    7.9194   -3.7185 C.3       1 <0>        -0.0054
     26 C18         1.7199    5.1277   -1.8379 C.3       1 <0>         0.1754
     27 C19         1.4204    5.3868   -0.3817 C.ar      1 <0>        -0.1376
     28 C20         1.3691    6.5475    0.3606 C.ar      1 <0>        -0.1020
     29 C21         1.0580    6.4950    1.7079 C.ar      1 <0>        -0.1114
     30 C22         0.8075    5.2776    2.3148 C.ar      1 <0>        -0.1041
     31 C23         0.8562    4.1113    1.5798 C.ar      1 <0>        -0.0928
     32 C24         1.1645    4.1571    0.2190 C.ar      1 <0>        -0.0415
     33 C25         1.2837    3.0785   -0.7930 C.ar      1 <0>        -0.0594
     34 C26         1.6141    3.6342   -2.0261 C.ar      1 <0>        -0.0890
     35 C27         1.7804    2.8263   -3.1309 C.ar      1 <0>        -0.0793
     36 C28         1.6192    1.4567   -3.0181 C.ar      1 <0>        -0.1106
     37 C29         1.2910    0.8952   -1.7973 C.ar      1 <0>        -0.1068
     38 C30         1.1231    1.6959   -0.6866 C.ar      1 <0>        -0.0939
     39 H2         -0.6091   13.9608    0.6396 H         1 <0>         0.0684
     40 H3         -0.1000   12.3464    0.0388 H         1 <0>         0.0668
     41 H4         -1.7787   12.5975    0.6267 H         1 <0>         0.0669
     42 H5         -0.9517   15.5232   -1.0035 H         1 <0>         0.1330
     43 H6         -1.6369   16.1797   -3.2647 H         1 <0>         0.1318
     44 H7         -1.8525   11.4497   -1.8391 H         1 <0>         0.1345
     45 H8         -4.4256   14.1765   -9.6482 H         1 <0>         0.1114
     46 H9         -5.1800   12.7216   -8.9129 H         1 <0>         0.0676
     47 H10        -3.5026   12.6387   -9.5500 H         1 <0>         0.0667
     48 H11        -3.7729   10.2988   -5.2429 H         1 <0>         0.4547
     49 H12        -3.3373    8.0902   -3.7718 H         1 <0>         0.1633
     50 H13        -2.1674    8.0797   -5.1348 H         1 <0>         0.1628
     51 H14        -2.6497    6.0953   -2.7847 H         1 <0>         0.1370
     52 H15        -1.5320    5.7972   -4.1589 H         1 <0>         0.1384
     53 H16        -0.7451    6.0087   -1.1982 H         1 <0>         0.0679
     54 H17        -0.8261    4.4981   -2.1667 H         1 <0>         0.1237
     55 H18         0.9306    7.7021   -1.7643 H         1 <0>         0.0687
     56 H19         2.0485    7.4042   -3.1385 H         1 <0>         0.1249
     57 H20         0.1427    7.4908   -4.7252 H         1 <0>         0.1328
     58 H21         0.2238    9.0014   -3.7567 H         1 <0>         0.1505
     59 H22         2.7051    5.5159   -2.1357 H         1 <0>         0.1165
     60 H23         1.5684    7.4986   -0.1106 H         1 <0>         0.1223
     61 H24         1.0145    7.4054    2.2872 H         1 <0>         0.1313
     62 H25         0.5684    5.2405    3.3674 H         1 <0>         0.1324
     63 H26         0.6562    3.1632    2.0569 H         1 <0>         0.1281
     64 H27         2.0369    3.2628   -4.0849 H         1 <0>         0.1281
     65 H28         1.7494    0.8252   -3.8845 H         1 <0>         0.1317
     66 H29         1.1664   -0.1743   -1.7132 H         1 <0>         0.1315
     67 H30         0.8672    1.2533    0.2648 H         1 <0>         0.1259
     68 H31        -1.4184    8.1022   -2.2225 H         1 <0>         0.4452
@<TRIPOS>BOND
     1    1    2 1
     2    1   39 1
     3    1   40 1
     4    1   41 1
     5    2    7 ar
     6    2    3 ar
     7    3    4 ar
     8    3   42 1
     9    4    5 ar
    10    4   43 1
    11    5   10 1
    12    5    6 ar
    13    6    7 ar
    14    6    8 1
    15    7   44 1
    16    8    9 2
    17    8   16 1
    18    9   10 1
    19    9   12 1
    20   10   11 1
    21   12   13 2
    22   12   14 1
    23   14   15 1
    24   15   45 1
    25   15   46 1
    26   15   47 1
    27   16   17 am
    28   16   48 1
    29   17   18 2
    30   17   19 1
    31   19   20 1
    32   19   49 1
    33   19   50 1
    34   20   25 1
    35   20   21 1
    36   20   68 1
    37   21   22 1
    38   21   51 1
    39   21   52 1
    40   22   23 1
    41   22   53 1
    42   22   54 1
    43   23   24 1
    44   23   26 1
    45   24   25 1
    46   24   55 1
    47   24   56 1
    48   25   57 1
    49   25   58 1
    50   26   34 1
    51   26   27 1
    52   26   59 1
    53   27   32 ar
    54   27   28 ar
    55   28   29 ar
    56   28   60 1
    57   29   30 ar
    58   29   61 1
    59   30   31 ar
    60   30   62 1
    61   31   32 ar
    62   31   63 1
    63   32   33 1
    64   33   38 ar
    65   33   34 ar
    66   34   35 ar
    67   35   36 ar
    68   35   64 1
    69   36   37 ar
    70   36   65 1
    71   37   38 ar
    72   37   66 1
    73   38   67 1
@<TRIPOS>MOLECULE
ZINC19720136
   73    78     0     0     0
SMALL
USER_CHARGES

@<TRIPOS>ATOM
      1 C1         -0.0323   -2.2674    0.4308 C.3       1 <0>        -0.1726
      2 C2          1.2097   -1.5233    0.9254 C.3       1 <0>         0.0825
      3 H1          1.5902   -2.0147    1.8208 H         1 <0>         0.1451
      4 C3          2.2675   -1.5555   -0.1463 C.ar      1 <0>        -0.1212
      5 C4          2.4535   -2.7329   -0.8566 C.ar      1 <0>        -0.1545
      6 C5          3.4153   -2.8075   -1.8479 C.ar      1 <0>         0.1175
      7 C6          4.2010   -1.6944   -2.1329 C.ar      1 <0>         0.1294
      8 C7          4.0117   -0.5223   -1.4225 C.ar      1 <0>        -0.1662
      9 C8          3.0449   -0.4527   -0.4309 C.ar      1 <0>        -0.0865
     10 C9          2.8668    0.8469    0.3124 C.3       1 <0>        -0.1003
     11 C10         2.0671    0.6056    1.5932 C.3       1 <0>        -0.0043
     12 N1          0.8472   -0.1408    1.2501 N.4       1 <0>        -0.3761
     13 C11        -0.0733   -0.1297    2.3949 C.3       1 <0>         0.0486
     14 C12         0.6465   -0.6244    3.6230 C.ar      1 <0>        -0.1887
     15 C13         1.2278    0.2770    4.4938 C.ar      1 <0>        -0.0586
     16 C14         1.8886   -0.1762    5.6204 C.ar      1 <0>        -0.1157
     17 C15         1.9693   -1.5323    5.8789 C.ar      1 <0>        -0.0067
     18 C16         1.3895   -2.4375    5.0116 C.ar      1 <0>        -0.2021
     19 C17         0.7211   -1.9849    3.8830 C.ar      1 <0>         0.1529
     20 O1          0.1449   -2.8733    3.0311 O.3       1 <0>        -0.3191
     21 C18         0.2614   -4.2585    3.3620 C.3       1 <0>         0.0174
     22 C19         2.5226    0.8093    6.5680 C.3       1 <0>         0.2023
     23 H2          2.0788    1.7942    6.4232 H         1 <0>         0.0651
     24 C20         4.0088    0.8790    6.3084 C.2       1 <0>         0.0562
     25 C21         4.9301    0.8967    7.2986 C.2       1 <0>        -0.1361
     26 C22         6.2308    0.9639    6.6708 C.ar      1 <0>        -0.1028
     27 C23         7.5323    1.0065    7.1807 C.ar      1 <0>        -0.0613
     28 C24         8.5557    1.0672    6.2677 C.ar      1 <0>        -0.1468
     29 C25         8.3240    1.0858    4.9020 C.ar      1 <0>        -0.0920
     30 C26         7.0472    1.0456    4.3695 C.ar      1 <0>        -0.1373
     31 C27         5.9880    0.9837    5.2725 C.ar      1 <0>         0.1019
     32 N2          4.6350    0.9322    5.0930 N.pl3     1 <0>        -0.5810
     33 H3          4.1857    0.9329    4.2333 H         1 <0>         0.4040
     34 C28         4.5766    0.8532    8.7639 C.3       1 <0>        -0.0476
     35 C29         3.0843    1.1841    8.9021 C.3       1 <0>         0.0585
     36 N3          2.3076    0.3692    7.9560 N.3       1 <0>        -0.6797
     37 O2          5.1503   -1.7587   -3.1045 O.3       1 <0>        -0.2965
     38 C30         5.9179   -0.5768   -3.3408 C.3       1 <0>         0.0215
     39 O3          3.5928   -3.9640   -2.5411 O.3       1 <0>        -0.2963
     40 C31         2.7504   -5.0646   -2.1933 C.3       1 <0>         0.0219
     41 H4         -0.4160   -1.7788   -0.4648 H         1 <0>         0.0778
     42 H5          0.2312   -3.2990    0.1973 H         1 <0>         0.0991
     43 H6         -0.7969   -2.2546    1.2075 H         1 <0>         0.0945
     44 H7          1.8435   -3.5960   -0.6343 H         1 <0>         0.1453
     45 H8          4.6203    0.3427   -1.6411 H         1 <0>         0.1460
     46 H9          3.8447    1.2554    0.5674 H         1 <0>         0.1196
     47 H10         2.3328    1.5559   -0.3201 H         1 <0>         0.1040
     48 H11         2.6661    0.0252    2.2949 H         1 <0>         0.1262
     49 H12         1.7974    1.5617    2.0418 H         1 <0>         0.1342
     50 H13        -0.4278    0.8867    2.5662 H         1 <0>         0.1382
     51 H14        -0.9223   -0.7801    2.1846 H         1 <0>         0.1429
     52 H15         1.1661    1.3366    4.2942 H         1 <0>         0.1364
     53 H16         2.4864   -1.8839    6.7594 H         1 <0>         0.1482
     54 H17         1.4528   -3.4965    5.2139 H         1 <0>         0.1419
     55 H18        -0.2407   -4.8571    2.6019 H         1 <0>         0.1107
     56 H19         1.3150   -4.5346    3.4046 H         1 <0>         0.0639
     57 H20        -0.2014   -4.4405    4.3320 H         1 <0>         0.0682
     58 H21         7.7234    0.9927    8.2436 H         1 <0>         0.1315
     59 H22         9.5741    1.1012    6.6256 H         1 <0>         0.1219
     60 H23         9.1682    1.1336    4.2302 H         1 <0>         0.1230
     61 H24         6.8795    1.0616    3.3027 H         1 <0>         0.1237
     62 H25         4.7712   -0.1433    9.1604 H         1 <0>         0.0819
     63 H26         5.1690    1.5890    9.3077 H         1 <0>         0.0801
     64 H27         2.7571    0.9690    9.9194 H         1 <0>         0.0887
     65 H28         2.9246    2.2403    8.6848 H         1 <0>         0.0406
     66 H29         1.3260    0.3757    8.1895 H         1 <0>         0.3561
     67 H30         5.2530    0.2356   -3.6343 H         1 <0>         0.0598
     68 H31         6.4492   -0.3004   -2.4301 H         1 <0>         0.0597
     69 H32         6.6370   -0.7639   -4.1384 H         1 <0>         0.1107
     70 H33         2.9054   -5.3241   -1.1461 H         1 <0>         0.0575
     71 H34         1.7078   -4.7874   -2.3485 H         1 <0>         0.0583
     72 H35         2.9955   -5.9220   -2.8202 H         1 <0>         0.1105
     73 H36         0.4017    0.2877    0.4526 H         1 <0>         0.4246
@<TRIPOS>BOND
     1    1    2 1
     2    1   41 1
     3    1   42 1
     4    1   43 1
     5    2    3 1
     6    2   12 1
     7    2    4 1
     8    4    9 ar
     9    4    5 ar
    10    5    6 ar
    11    5   44 1
    12    6    7 ar
    13    6   39 1
    14    7    8 ar
    15    7   37 1
    16    8    9 ar
    17    8   45 1
    18    9   10 1
    19   10   11 1
    20   10   46 1
    21   10   47 1
    22   11   12 1
    23   11   48 1
    24   11   49 1
    25   12   13 1
    26   12   73 1
    27   13   14 1
    28   13   50 1
    29   13   51 1
    30   14   19 ar
    31   14   15 ar
    32   15   16 ar
    33   15   52 1
    34   16   17 ar
    35   16   22 1
    36   17   18 ar
    37   17   53 1
    38   18   19 ar
    39   18   54 1
    40   19   20 1
    41   20   21 1
    42   21   55 1
    43   21   56 1
    44   21   57 1
    45   22   23 1
    46   22   36 1
    47   22   24 1
    48   24   32 1
    49   24   25 2
    50   25   26 1
    51   25   34 1
    52   26   31 ar
    53   26   27 ar
    54   27   28 ar
    55   27   58 1
    56   28   29 ar
    57   28   59 1
    58   29   30 ar
    59   29   60 1
    60   30   31 ar
    61   30   61 1
    62   31   32 1
    63   32   33 1
    64   34   35 1
    65   34   62 1
    66   34   63 1
    67   35   36 1
    68   35   64 1
    69   35   65 1
    70   36   66 1
    71   37   38 1
    72   38   67 1
    73   38   68 1
    74   38   69 1
    75   39   40 1
    76   40   70 1
    77   40   71 1
    78   40   72 1
@<TRIPOS>MOLECULE
ZINC39654054
   73    77     0     0     0
SMALL
USER_CHARGES

@<TRIPOS>ATOM
      1 C1         -3.7381    1.9587    1.7493 C.3       1 <0>        -0.1546
      2 C2         -3.9316    0.4551    1.5430 C.3       1 <0>         0.0538
      3 O1         -3.9116   -0.2059    2.8098 O.3       1 <0>        -0.3147
      4 C3         -4.0713   -1.5555    2.8041 C.ar      1 <0>         0.1382
      5 C4         -4.2381   -2.2304    1.6035 C.ar      1 <0>        -0.2060
      6 C5         -4.3999   -3.6023    1.6004 C.ar      1 <0>        -0.0693
      7 C6         -4.3961   -4.3028    2.7925 C.ar      1 <0>        -0.1335
      8 C7         -4.2305   -3.6324    3.9904 C.ar      1 <0>        -0.0726
      9 C8         -4.0622   -2.2613    3.9984 C.ar      1 <0>        -0.1515
     10 C9         -4.5733   -5.7993    2.7862 C.3       1 <0>        -0.0806
     11 C10        -3.2044   -6.4745    2.6804 C.3       1 <0>         0.1210
     12 N1         -3.3766   -7.9293    2.6742 N.am      1 <0>        -0.7308
     13 C11        -2.2997   -8.7350    2.5875 C.2       1 <0>         0.5129
     14 O2         -1.1880   -8.2557    2.5146 O.2       1 <0>        -0.5113
     15 C12        -2.4768  -10.2315    2.5812 C.3       1 <0>        -0.1152
     16 H1         -3.4380  -10.4973    2.1412 H         1 <0>         0.1186
     17 C13        -1.3244  -10.9064    1.8040 C.3       1 <0>         0.1108
     18 N2         -0.3378  -11.2781    2.8454 N.am      1 <0>        -0.6129
     19 C14        -1.1628  -11.7488    3.9837 C.3       1 <0>         0.1095
     20 C15        -2.3694  -10.7895    4.0102 C.3       1 <0>        -0.0734
     21 C16        -2.1203   -9.6574    5.0022 C.3       1 <0>        -0.1469
     22 C17        -2.0738  -10.2300    6.4217 C.3       1 <0>        -0.0092
     23 N3         -3.3446  -10.9004    6.7225 N.4       1 <0>        -0.5044
     24 C18        -3.5323  -12.0451    5.8231 C.3       1 <0>        -0.0102
     25 C19        -3.6401  -11.5494    4.3783 C.3       1 <0>        -0.1336
     26 C20         1.0061  -11.2049    2.7738 C.2       1 <0>         0.6392
     27 O3          1.6859  -11.5513    3.7223 O.2       1 <0>        -0.5139
     28 C21         1.6486  -10.7084    1.5547 C.2       1 <0>        -0.0841
     29 C22         3.0054  -10.5876    1.3469 C.2       1 <0>        -0.0989
     30 C23         3.1720  -10.0767    0.0559 C.2       1 <0>        -0.2001
     31 C24         1.9243   -9.9058   -0.4725 C.2       1 <0>         0.0736
     32 O4          1.0149  -10.2949    0.4367 O.3       1 <0>        -0.1528
     33 C25         1.6247   -9.3853   -1.8214 C.ar      1 <0>        -0.0432
     34 C26         2.6651   -9.0241   -2.6805 C.ar      1 <0>        -0.0587
     35 C27         2.3794   -8.5391   -3.9391 C.ar      1 <0>        -0.1478
     36 C28         1.0626   -8.4097   -4.3524 C.ar      1 <0>         0.1173
     37 C29         0.0260   -8.7661   -3.5039 C.ar      1 <0>        -0.1521
     38 C30         0.3000   -9.2577   -2.2452 C.ar      1 <0>        -0.0666
     39 F1          0.7884   -7.9338   -5.5868 F         1 <0>        -0.1309
     40 H2         -3.7534    2.4629    0.7830 H         1 <0>         0.0817
     41 H3         -4.5428    2.3463    2.3741 H         1 <0>         0.0680
     42 H4         -2.7803    2.1382    2.2376 H         1 <0>         0.0678
     43 H5         -4.8894    0.2756    1.0547 H         1 <0>         0.0638
     44 H6         -3.1269    0.0675    0.9182 H         1 <0>         0.0635
     45 H7         -4.2419   -1.6836    0.6722 H         1 <0>         0.1305
     46 H8         -4.5298   -4.1281    0.6660 H         1 <0>         0.1250
     47 H9         -4.2283   -4.1818    4.9202 H         1 <0>         0.1259
     48 H10        -3.9284   -1.7387    4.9341 H         1 <0>         0.1326
     49 H11        -5.0618   -6.1112    3.7092 H         1 <0>         0.0752
     50 H12        -5.1880   -6.0888    1.9339 H         1 <0>         0.0791
     51 H13        -2.7158   -6.1625    1.7573 H         1 <0>         0.0736
     52 H14        -2.5896   -6.1850    3.5326 H         1 <0>         0.0714
     53 H15        -4.2657   -8.3127    2.7325 H         1 <0>         0.3992
     54 H16        -1.6845  -11.7959    1.2869 H         1 <0>         0.0913
     55 H17        -0.8829  -10.2061    1.0950 H         1 <0>         0.1086
     56 H18        -1.4958  -12.7728    3.8145 H         1 <0>         0.0885
     57 H19        -0.6009  -11.6795    4.9151 H         1 <0>         0.0909
     58 H20        -1.1700   -9.1753    4.7730 H         1 <0>         0.1231
     59 H21        -2.9261   -8.9270    4.9306 H         1 <0>         0.0964
     60 H22        -1.2575  -10.9484    6.4969 H         1 <0>         0.1348
     61 H23        -1.9123   -9.4212    7.1343 H         1 <0>         0.1389
     62 H24        -3.3348  -11.2235    7.6783 H         1 <0>         0.4345
     63 H25        -2.6816  -12.7206    5.9127 H         1 <0>         0.1333
     64 H26        -4.4458  -12.5742    6.0945 H         1 <0>         0.1405
     65 H27        -4.5005  -10.8868    4.2841 H         1 <0>         0.0983
     66 H28        -3.7612  -12.4014    3.7093 H         1 <0>         0.1225
     67 H29         3.7890  -10.8387    2.0463 H         1 <0>         0.1660
     68 H30         4.1106   -9.8584   -0.4316 H         1 <0>         0.1637
     69 H31         3.6913   -9.1243   -2.3594 H         1 <0>         0.1433
     70 H32         3.1830   -8.2592   -4.6041 H         1 <0>         0.1477
     71 H33        -0.9981   -8.6625   -3.8310 H         1 <0>         0.1430
     72 H34        -0.5083   -9.5396   -1.5868 H         1 <0>         0.1349
     73 H35        -4.1048  -10.2487    6.5984 H         1 <0>         0.4275
@<TRIPOS>BOND
     1    1    2 1
     2    1   40 1
     3    1   41 1
     4    1   42 1
     5    2    3 1
     6    2   43 1
     7    2   44 1
     8    3    4 1
     9    4    9 ar
    10    4    5 ar
    11    5    6 ar
    12    5   45 1
    13    6    7 ar
    14    6   46 1
    15    7    8 ar
    16    7   10 1
    17    8    9 ar
    18    8   47 1
    19    9   48 1
    20   10   11 1
    21   10   49 1
    22   10   50 1
    23   11   12 1
    24   11   51 1
    25   11   52 1
    26   12   13 am
    27   12   53 1
    28   13   14 2
    29   13   15 1
    30   15   16 1
    31   15   20 1
    32   15   17 1
    33   17   18 1
    34   17   54 1
    35   17   55 1
    36   18   19 1
    37   18   26 am
    38   19   20 1
    39   19   56 1
    40   19   57 1
    41   20   25 1
    42   20   21 1
    43   21   22 1
    44   21   58 1
    45   21   59 1
    46   22   23 1
    47   22   60 1
    48   22   61 1
    49   23   24 1
    50   23   62 1
    51   23   73 1
    52   24   25 1
    53   24   63 1
    54   24   64 1
    55   25   65 1
    56   25   66 1
    57   26   27 2
    58   26   28 1
    59   28   32 1
    60   28   29 2
    61   29   30 1
    62   29   67 1
    63   30   31 2
    64   30   68 1
    65   31   32 1
    66   31   33 1
    67   33   38 ar
    68   33   34 ar
    69   34   35 ar
    70   34   69 1
    71   35   36 ar
    72   35   70 1
    73   36   37 ar
    74   36   39 1
    75   37   38 ar
    76   37   71 1
    77   38   72 1
@<TRIPOS>MOLECULE
ZINC63375683
   75    80     0     0     0
SMALL
USER_CHARGES

@<TRIPOS>ATOM
      1 C1         -1.5400    1.4781    1.6585 C.3       1 <0>        -0.1569
      2 C2         -1.9658    0.0257    1.4346 C.3       1 <0>        -0.1062
      3 C3         -0.9604   -0.6639    0.5103 C.3       1 <0>        -0.0971
      4 H1         -0.8638   -0.0920   -0.4127 H         1 <0>         0.0866
      5 C4          0.4002   -0.7436    1.2056 C.3       1 <0>        -0.1514
      6 C5         -1.4510   -2.0763    0.1861 C.3       1 <0>         0.1337
      7 H2         -2.4629   -2.0261   -0.2161 H         1 <0>         0.1095
      8 C6         -0.5359   -2.7044   -0.8332 C.2       1 <0>         0.5151
      9 O1          0.3588   -3.4398   -0.4733 O.2       1 <0>        -0.5305
     10 N1         -0.7118   -2.4489   -2.1448 N.am      1 <0>        -0.7190
     11 C7          0.2378   -2.9767   -3.1276 C.3       1 <0>         0.1454
     12 C8          1.4271   -2.0221   -3.2513 C.3       1 <0>        -0.1295
     13 C9          2.4188   -2.5733   -4.2778 C.3       1 <0>        -0.1181
     14 C10         1.7269   -2.7046   -5.6360 C.3       1 <0>        -0.1249
     15 C11         0.5376   -3.6592   -5.5123 C.3       1 <0>        -0.1163
     16 C12        -0.4542   -3.1080   -4.4859 C.3       1 <0>        -0.1260
     17 N2         -1.4505   -2.8857    1.4073 N.am      1 <0>        -0.7017
     18 C13        -2.5091   -2.8487    2.2407 C.2       1 <0>         0.5003
     19 O2         -3.4620   -2.1453    1.9798 O.2       1 <0>        -0.5096
     20 C14        -2.5085   -3.6813    3.4968 C.3       1 <0>         0.1474
     21 H3         -1.6685   -3.3913    4.1281 H         1 <0>         0.1568
     22 C15        -2.3893   -5.1732    3.1292 C.3       1 <0>        -0.0948
     23 C16        -3.7461   -5.6225    2.6460 C.2       1 <0>         0.0538
     24 C17        -4.1086   -6.2409    1.5268 C.ar      1 <0>        -0.1534
     25 C18        -3.3191   -6.7898    0.4125 C.ar      1 <0>         0.0002
     26 C19        -4.0262   -7.3513   -0.6035 C.ar      1 <0>        -0.1566
     27 C20        -5.4226   -7.4219   -0.6223 C.ar      1 <0>         0.0580
     28 C21        -6.2274   -6.9510    0.3633 C.ar      1 <0>        -0.2076
     29 C22        -5.5989   -6.3439    1.4894 C.ar      1 <0>         0.3382
     30 N3         -6.1165   -5.8345    2.5673 N.pl3     1 <0>        -0.5722
     31 C23        -5.0269   -5.3962    3.4415 C.3       1 <0>         0.0852
     32 H4         -5.0167   -5.9728    4.3665 H         1 <0>         0.1825
     33 C24        -5.1008   -3.8917    3.7257 C.3       1 <0>         0.1919
     34 H5         -5.3650   -3.3405    2.8232 H         1 <0>         0.1353
     35 N4         -3.7673   -3.4762    4.2254 N.am      1 <0>        -0.6019
     36 C25        -3.9119   -2.9088    5.4365 C.2       1 <0>         0.5740
     37 O3         -3.0141   -2.3979    6.0772 O.2       1 <0>        -0.4855
     38 C26        -5.3074   -2.9953    5.8711 C.ar      1 <0>        -0.1537
     39 C27        -6.0705   -3.6043    4.8254 C.ar      1 <0>        -0.1103
     40 C28        -7.4253   -3.8263    4.9349 C.ar      1 <0>        -0.0905
     41 C29        -8.0374   -3.4253    6.1189 C.ar      1 <0>        -0.0821
     42 C30        -7.3250   -2.8300    7.1406 C.ar      1 <0>        -0.1101
     43 C31        -5.9199   -2.5915    7.0603 C.ar      1 <0>        -0.0177
     44 H6         -2.2563    1.9694    2.3171 H         1 <0>         0.0557
     45 H7         -0.5510    1.5003    2.1163 H         1 <0>         0.0569
     46 H8         -1.5092    1.9993    0.7017 H         1 <0>         0.0550
     47 H9         -1.9966   -0.4955    2.3914 H         1 <0>         0.0596
     48 H10        -2.9548    0.0035    0.9768 H         1 <0>         0.0683
     49 H11         1.1053   -1.2728    0.5646 H         1 <0>         0.0604
     50 H12         0.7694    0.2637    1.3980 H         1 <0>         0.0656
     51 H13         0.2951   -1.2786    2.1494 H         1 <0>         0.0562
     52 H14        -1.4671   -1.9156   -2.4380 H         1 <0>         0.4025
     53 H15         0.5900   -3.9558   -2.8031 H         1 <0>         0.0914
     54 H16         1.0749   -1.0430   -3.5758 H         1 <0>         0.0656
     55 H17         1.9201   -1.9286   -2.2837 H         1 <0>         0.0664
     56 H18         3.2661   -1.8933   -4.3659 H         1 <0>         0.0682
     57 H19         2.7711   -3.5525   -3.9533 H         1 <0>         0.0649
     58 H20         1.3747   -1.7255   -5.9605 H         1 <0>         0.0643
     59 H21         2.4334   -3.0973   -6.3673 H         1 <0>         0.0675
     60 H22         0.0446   -3.7527   -6.4800 H         1 <0>         0.0699
     61 H23         0.8898   -4.6383   -5.1878 H         1 <0>         0.0654
     62 H24        -1.3014   -3.7880   -4.3978 H         1 <0>         0.0669
     63 H25        -0.8064   -2.1288   -4.8104 H         1 <0>         0.0699
     64 H26        -0.6884   -3.4482    1.6160 H         1 <0>         0.4134
     65 H27        -1.6515   -5.3027    2.3374 H         1 <0>         0.1290
     66 H28        -2.0982   -5.7498    4.0072 H         1 <0>         0.1443
     67 H29        -2.2400   -6.7485    0.4026 H         1 <0>         0.1697
     68 H30        -3.4814   -7.7639   -1.4398 H         1 <0>         0.1560
     69 H31        -5.8921   -7.8820   -1.4791 H         1 <0>         0.1595
     70 H32        -7.3022   -7.0329    0.2972 H         1 <0>         0.1709
     71 H33        -7.9873   -4.2903    4.1379 H         1 <0>         0.1331
     72 H34        -9.0987   -3.5838    6.2415 H         1 <0>         0.1408
     73 H35        -7.8453   -2.5335    8.0394 H         1 <0>         0.1411
     74 H36        -5.3579   -2.1247    7.8557 H         1 <0>         0.1563
     75 H37        -7.0641   -5.7572    2.7597 H         1 <0>         0.4546
@<TRIPOS>BOND
     1    1    2 1
     2    1   44 1
     3    1   45 1
     4    1   46 1
     5    2    3 1
     6    2   47 1
     7    2   48 1
     8    3    4 1
     9    3    5 1
    10    3    6 1
    11    5   49 1
    12    5   50 1
    13    5   51 1
    14    6    7 1
    15    6    8 1
    16    6   17 1
    17    8    9 2
    18    8   10 am
    19   10   11 1
    20   10   52 1
    21   11   16 1
    22   11   12 1
    23   11   53 1
    24   12   13 1
    25   12   54 1
    26   12   55 1
    27   13   14 1
    28   13   56 1
    29   13   57 1
    30   14   15 1
    31   14   58 1
    32   14   59 1
    33   15   16 1
    34   15   60 1
    35   15   61 1
    36   16   62 1
    37   16   63 1
    38   17   18 am
    39   17   64 1
    40   18   19 2
    41   18   20 1
    42   20   21 1
    43   20   35 1
    44   20   22 1
    45   22   23 1
    46   22   65 1
    47   22   66 1
    48   23   31 1
    49   23   24 2
    50   24   29 ar
    51   24   25 ar
    52   25   26 ar
    53   25   67 1
    54   26   27 ar
    55   26   68 1
    56   27   28 ar
    57   27   69 1
    58   28   29 ar
    59   28   70 1
    60   29   30 2
    61   30   31 1
    62   30   75 1
    63   31   32 1
    64   31   33 1
    65   33   34 1
    66   33   39 1
    67   33   35 1
    68   35   36 am
    69   36   37 2
    70   36   38 1
    71   38   43 ar
    72   38   39 ar
    73   39   40 ar
    74   40   41 ar
    75   40   71 1
    76   41   42 ar
    77   41   72 1
    78   42   43 ar
    79   42   73 1
    80   43   74 1
@<TRIPOS>MOLECULE
ZINC10244801
   59    63     0     0     0
SMALL
USER_CHARGES
2-[(2,5-dimethylphenyl)-oxo-BLAHyl]sulfanyl-N-(tetrahydrofuran-2-ylmethyl)acetamide
@<TRIPOS>ATOM
      1 C1         -7.6588    2.9241    9.8567 C.3       1 <0>        -0.1153
      2 C2         -6.9158    4.1759    9.4670 C.ar      1 <0>        -0.0813
      3 C3         -7.6177    5.3130    9.1102 C.ar      1 <0>        -0.0920
      4 C4         -6.9396    6.4632    8.7513 C.ar      1 <0>        -0.1080
      5 C5         -5.5583    6.4800    8.7484 C.ar      1 <0>        -0.0555
      6 C6         -4.8510    5.3403    9.1065 C.ar      1 <0>         0.0922
      7 C7         -5.5349    4.1849    9.4615 C.ar      1 <0>        -0.0830
      8 N1         -3.4502    5.3540    9.1042 N.am      1 <0>        -0.4571
      9 C8         -2.7803    5.7104   10.2210 C.2       1 <0>         0.5599
     10 O1         -3.3822    6.0212   11.2356 O.2       1 <0>        -0.5157
     11 C9         -1.3703    5.7154   10.1906 C.2       1 <0>        -0.0401
     12 C10        -0.7297    5.3516    9.0071 C.2       1 <0>         0.1360
     13 C11         0.7135    5.4479    9.2674 C.ar      1 <0>        -0.1013
     14 C12         1.8478    5.2153    8.4883 C.ar      1 <0>        -0.0416
     15 C13         3.0912    5.3949    9.0257 C.ar      1 <0>        -0.1517
     16 C14         3.2354    5.8090   10.3424 C.ar      1 <0>        -0.0698
     17 C15         2.1298    6.0444   11.1288 C.ar      1 <0>        -0.1410
     18 C16         0.8525    5.8670   10.6016 C.ar      1 <0>         0.1494
     19 N2         -0.4074    6.0222   11.1392 N.pl3     1 <0>        -0.5599
     20 H1         -0.5929    6.3048   12.0484 H         1 <0>         0.4254
     21 N3         -1.4558    5.0019    7.9330 N.2       1 <0>        -0.4938
     22 C17        -2.7692    5.0062    7.9720 C.2       1 <0>         0.3280
     23 S1         -3.6737    4.5456    6.5317 S.3       1 <0>         0.1000
     24 C18        -2.3054    4.2041    5.3971 C.3       1 <0>        -0.1553
     25 C19        -2.8557    3.7795    4.0600 C.2       1 <0>         0.5330
     26 O2         -4.0549    3.7141    3.8908 O.2       1 <0>        -0.5241
     27 N4         -2.0152    3.4723    3.0521 N.am      1 <0>        -0.7184
     28 C20        -2.5502    3.0595    1.7523 C.3       1 <0>         0.1274
     29 C21        -1.3936    2.7709    0.7932 C.3       1 <0>         0.0618
     30 H2         -0.7020    3.6129    0.7633 H         1 <0>         0.0798
     31 C22        -1.9281    2.4530   -0.6265 C.3       1 <0>        -0.1467
     32 C23        -0.7781    1.6063   -1.2241 C.3       1 <0>        -0.1565
     33 C24        -0.0127    1.0858    0.0080 C.3       1 <0>         0.0458
     34 O3         -0.7045    1.5588    1.1759 O.3       1 <0>        -0.3717
     35 C25        -4.8200    7.7340    8.3566 C.3       1 <0>        -0.1191
     36 H3         -7.8359    2.3157    8.9697 H         1 <0>         0.0762
     37 H4         -7.0647    2.3571   10.5734 H         1 <0>         0.0676
     38 H5         -8.6133    3.1938   10.3087 H         1 <0>         0.0711
     39 H6         -8.6976    5.3023    9.1117 H         1 <0>         0.1323
     40 H7         -7.4904    7.3493    8.4725 H         1 <0>         0.1350
     41 H8         -4.9874    3.2955    9.7362 H         1 <0>         0.1276
     42 H9          1.7429    4.8933    7.4628 H         1 <0>         0.1305
     43 H10         3.9678    5.2138    8.4213 H         1 <0>         0.1304
     44 H11         4.2241    5.9476   10.7544 H         1 <0>         0.1333
     45 H12         2.2526    6.3658   12.1526 H         1 <0>         0.1295
     46 H13        -1.6857    3.4057    5.8051 H         1 <0>         0.1315
     47 H14        -1.7032    5.1041    5.2729 H         1 <0>         0.1308
     48 H15        -1.0561    3.5246    3.1875 H         1 <0>         0.4077
     49 H16        -3.1699    3.8580    1.3442 H         1 <0>         0.0869
     50 H17        -3.1524    2.1595    1.8764 H         1 <0>         0.0813
     51 H18        -2.0763    3.3679   -1.2003 H         1 <0>         0.0858
     52 H19        -2.8505    1.8746   -0.5744 H         1 <0>         0.0834
     53 H20        -0.1292    2.2265   -1.8424 H         1 <0>         0.0776
     54 H21        -1.1762    0.7745   -1.8053 H         1 <0>         0.0807
     55 H22         0.0021   -0.0041    0.0020 H         1 <0>         0.0858
     56 H23         1.0072    1.4702    0.0003 H         1 <0>         0.0607
     57 H24        -4.6407    7.7290    7.2814 H         1 <0>         0.0812
     58 H25        -5.4186    8.6057    8.6210 H         1 <0>         0.0770
     59 H26        -3.8669    7.7742    8.8838 H         1 <0>         0.0568
@<TRIPOS>BOND
     1    1    2 1
     2    1   36 1
     3    1   37 1
     4    1   38 1
     5    2    7 ar
     6    2    3 ar
     7    3    4 ar
     8    3   39 1
     9    4    5 ar
    10    4   40 1
    11    5    6 ar
    12    5   35 1
    13    6    7 ar
    14    6    8 1
    15    7   41 1
    16    8   22 1
    17    8    9 am
    18    9   10 2
    19    9   11 1
    20   11   19 1
    21   11   12 2
    22   12   13 1
    23   12   21 1
    24   13   18 ar
    25   13   14 ar
    26   14   15 ar
    27   14   42 1
    28   15   16 ar
    29   15   43 1
    30   16   17 ar
    31   16   44 1
    32   17   18 ar
    33   17   45 1
    34   18   19 1
    35   19   20 1
    36   21   22 2
    37   22   23 1
    38   23   24 1
    39   24   25 1
    40   24   46 1
    41   24   47 1
    42   25   26 2
    43   25   27 am
    44   27   28 1
    45   27   48 1
    46   28   29 1
    47   28   49 1
    48   28   50 1
    49   29   30 1
    50   29   34 1
    51   29   31 1
    52   31   32 1
    53   31   51 1
    54   31   52 1
    55   32   33 1
    56   32   53 1
    57   32   54 1
    58   33   34 1
    59   33   55 1
    60   33   56 1
    61   35   57 1
    62   35   58 1
    63   35   59 1
@<TRIPOS>MOLECULE
ZINC17287198
   61    64     0     0     0
SMALL
USER_CHARGES
(5S)-5-(3,4-dimethoxyphenyl)-8,8-dimethyl-2-propylsulfanyl-5,7,9,10-tetrahydro-3H-pyrimido[6,5-b]quinoline-4,6-dione
@<TRIPOS>ATOM
      1 C1          3.5136    8.0529   -0.0191 C.3       1 <0>        -0.1463
      2 C2          2.0068    7.7876   -0.0033 C.3       1 <0>        -0.1154
      3 C3          1.7547    6.2785   -0.0013 C.3       1 <0>        -0.0996
      4 S1         -0.0278    5.9646    0.0173 S.3       1 <0>         0.0064
      5 C4         -0.0282    4.2026    0.0165 C.2       1 <0>         0.3982
      6 N1         -1.2159    3.5357    0.0291 N.am      1 <0>        -0.6207
      7 H1         -2.0494    4.0318    0.0413 H         1 <0>         0.4232
      8 C5         -1.2356    2.1862    0.0197 C.2       1 <0>         0.5469
      9 O1         -2.2950    1.5796    0.0241 O.2       1 <0>        -0.5176
     10 C6         -0.0183    1.4952    0.0103 C.2       1 <0>        -0.2944
     11 C7          1.1607    2.2202    0.0029 C.2       1 <0>         0.4240
     12 N2          1.1204    3.5570    0.0041 N.2       1 <0>        -0.5609
     13 N3          2.3717    1.5562   -0.0053 N.pl3     1 <0>        -0.6223
     14 C8          2.4506    0.2471    0.3848 C.2       1 <0>         0.2232
     15 C9          1.3530   -0.5379    0.4057 C.2       1 <0>        -0.2644
     16 C10         0.0021   -0.0041    0.0020 C.3       1 <0>         0.1000
     17 H2         -0.7496   -0.3747    0.6990 H         1 <0>         0.0936
     18 C11        -0.3274   -0.4940   -1.3845 C.ar      1 <0>        -0.0576
     19 C12         0.4729   -0.1320   -2.4522 C.ar      1 <0>        -0.1093
     20 C13         0.1781   -0.5835   -3.7252 C.ar      1 <0>        -0.1758
     21 C14        -0.9280   -1.3913   -3.9349 C.ar      1 <0>         0.0944
     22 C15        -1.7367   -1.7509   -2.8612 C.ar      1 <0>         0.0994
     23 C16        -1.4324   -1.2996   -1.5869 C.ar      1 <0>        -0.1382
     24 O2         -2.8236   -2.5432   -3.0620 O.3       1 <0>        -0.3078
     25 C17        -3.6083   -2.8715   -1.9137 C.3       1 <0>         0.0255
     26 O3         -1.2228   -1.8313   -5.1875 O.3       1 <0>        -0.3074
     27 C18        -0.3485   -1.4225   -6.2413 C.3       1 <0>         0.0278
     28 C19         1.4340   -1.8848    0.8027 C.2       1 <0>         0.4034
     29 O4          0.4241   -2.5602    0.8275 O.2       1 <0>        -0.4613
     30 C20         2.7457   -2.5055    1.1970 C.3       1 <0>        -0.1501
     31 C21         3.8798   -1.7838    0.4613 C.3       1 <0>        -0.0535
     32 C22         3.7994   -0.2926    0.7954 C.3       1 <0>        -0.0863
     33 C23         3.7241   -1.9830   -1.0476 C.3       1 <0>        -0.1548
     34 C24         5.2290   -2.3422    0.9183 C.3       1 <0>        -0.1421
     35 H3          3.9698    7.6095    0.8660 H         1 <0>         0.0594
     36 H4          3.9511    7.6103   -0.9139 H         1 <0>         0.0594
     37 H5          3.6932    9.1280   -0.0205 H         1 <0>         0.0647
     38 H6          1.5506    8.2310   -0.8884 H         1 <0>         0.0752
     39 H7          1.5693    8.2303    0.8915 H         1 <0>         0.0753
     40 H8          2.2110    5.8351    0.8837 H         1 <0>         0.1040
     41 H9          2.1923    5.8359   -0.8962 H         1 <0>         0.1038
     42 H10         3.1734    2.0221   -0.2901 H         1 <0>         0.4209
     43 H11         1.3326    0.5014   -2.2908 H         1 <0>         0.1130
     44 H12         0.8075   -0.3030   -4.5568 H         1 <0>         0.1307
     45 H13        -2.0587   -1.5770   -0.7519 H         1 <0>         0.1362
     46 H14        -2.9891   -3.4016   -1.1900 H         1 <0>         0.0566
     47 H15        -3.9921   -1.9566   -1.4623 H         1 <0>         0.0558
     48 H16        -4.4421   -3.5066   -2.2129 H         1 <0>         0.0993
     49 H17        -0.6966   -1.8415   -7.1854 H         1 <0>         0.0994
     50 H18        -0.3426   -0.3345   -6.3069 H         1 <0>         0.0520
     51 H19         0.6606   -1.7795   -6.0353 H         1 <0>         0.0529
     52 H20         2.7440   -3.4742    0.9488 H         1 <0>         0.0887
     53 H21         2.8875   -2.4060    2.2731 H         1 <0>         0.1009
     54 H22         4.5829    0.2422    0.2587 H         1 <0>         0.0916
     55 H23         3.9348   -0.1532    1.8679 H         1 <0>         0.1032
     56 H24         4.5213   -1.4525   -1.5683 H         1 <0>         0.0610
     57 H25         3.7819   -3.0460   -1.2816 H         1 <0>         0.0633
     58 H26         2.7582   -1.5925   -1.3679 H         1 <0>         0.0644
     59 H27         5.3324   -2.2069    1.9949 H         1 <0>         0.0611
     60 H28         5.2826   -3.4042    0.6787 H         1 <0>         0.0649
     61 H29         6.0332   -1.8134    0.4067 H         1 <0>         0.0624
@<TRIPOS>BOND
     1    1    2 1
     2    1   35 1
     3    1   36 1
     4    1   37 1
     5    2    3 1
     6    2   38 1
     7    2   39 1
     8    3    4 1
     9    3   40 1
    10    3   41 1
    11    4    5 1
    12    5   12 2
    13    5    6 1
    14    6    7 1
    15    6    8 am
    16    8    9 2
    17    8   10 1
    18   10   16 1
    19   10   11 2
    20   11   12 1
    21   11   13 1
    22   13   14 1
    23   13   42 1
    24   14   32 1
    25   14   15 2
    26   15   16 1
    27   15   28 1
    28   16   17 1
    29   16   18 1
    30   18   23 ar
    31   18   19 ar
    32   19   20 ar
    33   19   43 1
    34   20   21 ar
    35   20   44 1
    36   21   22 ar
    37   21   26 1
    38   22   23 ar
    39   22   24 1
    40   23   45 1
    41   24   25 1
    42   25   46 1
    43   25   47 1
    44   25   48 1
    45   26   27 1
    46   27   49 1
    47   27   50 1
    48   27   51 1
    49   28   29 2
    50   28   30 1
    51   30   31 1
    52   30   52 1
    53   30   53 1
    54   31   32 1
    55   31   33 1
    56   31   34 1
    57   32   54 1
    58   32   55 1
    59   33   56 1
    60   33   57 1
    61   33   58 1
    62   34   59 1
    63   34   60 1
    64   34   61 1
@<TRIPOS>MOLECULE
ZINC28372522
   57    61     0     0     0
SMALL
USER_CHARGES
2-[[5-(1H-indol-3-yl)-4-[[(2S)-tetrahydrofuran-2-yl]methyl]-1,2,4-triazol-3-yl]sulfanyl]-N-(m-tolyl)acetamide
@<TRIPOS>ATOM
      1 C1        -11.0590   -4.9862   -3.0564 C.3       1 <0>        -0.1177
      2 C2        -11.2638   -3.7736   -2.1852 C.ar      1 <0>        -0.0680
      3 C3        -12.4860   -3.5608   -1.5739 C.ar      1 <0>        -0.1351
      4 C4        -12.6783   -2.4491   -0.7747 C.ar      1 <0>        -0.0978
      5 C5        -11.6495   -1.5472   -0.5844 C.ar      1 <0>        -0.1496
      6 C6        -10.4211   -1.7583   -1.1963 C.ar      1 <0>         0.1506
      7 C7        -10.2328   -2.8732   -2.0028 C.ar      1 <0>        -0.1235
      8 N1         -9.3770   -0.8466   -1.0055 N.am      1 <0>        -0.6796
      9 C8         -8.1041   -1.2844   -0.9372 C.2       1 <0>         0.5373
     10 O1         -7.8547   -2.4559   -1.1283 O.2       1 <0>        -0.5093
     11 C9         -6.9908   -0.3184   -0.6235 C.3       1 <0>        -0.1530
     12 S1         -5.4120   -1.2034   -0.6032 S.3       1 <0>         0.0927
     13 C10        -4.3206    0.1267   -0.2235 C.2       1 <0>         0.1534
     14 N2         -4.6587    1.3799   -0.0281 N.2       1 <0>        -0.2981
     15 N3         -3.6159    2.0839    0.2328 N.2       1 <0>        -0.2692
     16 C11        -2.5446    1.3243    0.2118 C.2       1 <0>         0.2671
     17 N4         -2.9627    0.0459   -0.0779 N.pl3     1 <0>        -0.4534
     18 C12        -2.1281   -1.1514   -0.2046 C.3       1 <0>         0.0927
     19 C13        -1.8939   -1.7586    1.1801 C.3       1 <0>         0.0627
     20 H1         -1.5396   -0.9819    1.8737 H         1 <0>         0.0898
     21 C14        -0.9176   -2.9496    1.0715 C.3       1 <0>        -0.1481
     22 C15        -1.5281   -3.9670    2.0758 C.3       1 <0>        -0.1540
     23 C16        -3.0407   -3.6755    1.9088 C.3       1 <0>         0.0511
     24 O2         -3.1292   -2.2560    1.7079 O.3       1 <0>        -0.3621
     25 C17        -1.1551    1.7588    0.4587 C.2       1 <0>        -0.1146
     26 C18        -0.0600    1.4301   -0.2739 C.2       1 <0>         0.0803
     27 N5          1.0462    2.0266    0.2584 N.pl3     1 <0>        -0.5949
     28 H2          2.0307    1.8763   -0.2088 H         1 <0>         0.4489
     29 C19         0.7006    2.7651    1.3697 C.ar      1 <0>         0.1080
     30 C20        -0.6865    2.6305    1.5495 C.ar      1 <0>        -0.0757
     31 C21        -1.3187    3.2769    2.6099 C.ar      1 <0>        -0.0621
     32 C22        -0.5773    4.0468    3.4786 C.ar      1 <0>        -0.1414
     33 C23         0.7926    4.1805    3.3021 C.ar      1 <0>        -0.0943
     34 C24         1.4312    3.5473    2.2584 C.ar      1 <0>        -0.1305
     35 H3        -11.9842   -5.5806   -3.0808 H         1 <0>         0.0668
     36 H4        -10.2411   -5.5975   -2.6475 H         1 <0>         0.0720
     37 H5        -10.8022   -4.6654   -4.0768 H         1 <0>         0.0704
     38 H6        -13.2921   -4.2643   -1.7215 H         1 <0>         0.1229
     39 H7        -13.6340   -2.2856   -0.2990 H         1 <0>         0.1266
     40 H8        -11.8006   -0.6787    0.0395 H         1 <0>         0.1257
     41 H9         -9.2801   -3.0377   -2.4841 H         1 <0>         0.1378
     42 H10        -9.5950    0.2274   -0.9112 H         1 <0>         0.4399
     43 H11        -6.9604    0.4681   -1.3919 H         1 <0>         0.1297
     44 H12        -7.1680    0.1380    0.3615 H         1 <0>         0.1314
     45 H13        -2.6363   -1.8864   -0.8461 H         1 <0>         0.1052
     46 H14        -1.1617   -0.8789   -0.6537 H         1 <0>         0.1054
     47 H15        -0.9068   -3.3217    0.0364 H         1 <0>         0.0818
     48 H16         0.0937   -2.6216    1.3538 H         1 <0>         0.0862
     49 H17        -1.2426   -4.9880    1.7825 H         1 <0>         0.0873
     50 H18        -1.1493   -3.7565    3.0868 H         1 <0>         0.0803
     51 H19        -3.4278   -4.2319    1.0424 H         1 <0>         0.0656
     52 H20        -3.5771   -3.9902    2.8161 H         1 <0>         0.0903
     53 H21        -0.0645    0.7963   -1.1483 H         1 <0>         0.1715
     54 H22        -2.3846    3.1745    2.7500 H         1 <0>         0.1248
     55 H23        -1.0646    4.5492    4.3011 H         1 <0>         0.1257
     56 H24         1.3637    4.7865    3.9898 H         1 <0>         0.1276
     57 H25         2.4978    3.6584    2.1301 H         1 <0>         0.1223
@<TRIPOS>BOND
     1    1    2 1
     2    1   35 1
     3    1   36 1
     4    1   37 1
     5    2    7 ar
     6    2    3 ar
     7    3    4 ar
     8    3   38 1
     9    4    5 ar
    10    4   39 1
    11    5    6 ar
    12    5   40 1
    13    6    7 ar
    14    6    8 1
    15    7   41 1
    16    8    9 am
    17    8   42 1
    18    9   10 2
    19    9   11 1
    20   11   12 1
    21   11   43 1
    22   11   44 1
    23   12   13 1
    24   13   17 1
    25   13   14 2
    26   14   15 1
    27   15   16 2
    28   16   17 1
    29   16   25 1
    30   17   18 1
    31   18   19 1
    32   18   45 1
    33   18   46 1
    34   19   20 1
    35   19   24 1
    36   19   21 1
    37   21   22 1
    38   21   47 1
    39   21   48 1
    40   22   23 1
    41   22   49 1
    42   22   50 1
    43   23   24 1
    44   23   51 1
    45   23   52 1
    46   25   30 1
    47   25   26 2
    48   26   27 1
    49   26   53 1
    50   27   28 1
    51   27   29 1
    52   29   34 ar
    53   29   30 ar
    54   30   31 ar
    55   31   32 ar
    56   31   54 1
    57   32   33 ar
    58   32   55 1
    59   33   34 ar
    60   33   56 1
    61   34   57 1
@<TRIPOS>MOLECULE
ZINC39425841
   57    60     0     0     0
SMALL
USER_CHARGES

@<TRIPOS>ATOM
      1 C1          3.2115    1.5591   -0.8979 C.3       1 <0>        -0.1722
      2 C2          2.5658    0.2055   -1.0461 C.2       1 <0>         0.5101
      3 O1          1.4389    0.1161   -1.4859 O.2       1 <0>        -0.5248
      4 N1          3.2404   -0.9056   -0.6900 N.am      1 <0>        -0.6762
      5 C3          2.6028   -2.1524   -0.7217 C.ar      1 <0>         0.1294
      6 C4          2.8803   -3.0992    0.2555 C.ar      1 <0>        -0.1228
      7 C5          2.2519   -4.3280    0.2243 C.ar      1 <0>        -0.1251
      8 C6          1.3423   -4.6172   -0.7844 C.ar      1 <0>         0.1216
      9 C7          1.0648   -3.6704   -1.7616 C.ar      1 <0>        -0.1105
     10 C8          1.6889   -2.4396   -1.7272 C.ar      1 <0>        -0.0979
     11 N2          0.7050   -5.8642   -0.8164 N.am      1 <0>        -0.6573
     12 C9          0.2713   -6.3695   -1.9881 C.2       1 <0>         0.5161
     13 O2          0.3501   -5.7065   -3.0008 O.2       1 <0>        -0.5060
     14 C10        -0.3116   -7.7582   -2.0402 C.3       1 <0>        -0.1411
     15 C11        -0.2778   -8.2718   -3.4810 C.3       1 <0>         0.0740
     16 H1         -0.7880   -7.5760   -4.1470 H         1 <0>         0.1569
     17 C12        -0.9016   -9.6504   -3.5705 C.2       1 <0>         0.5215
     18 O3         -2.0443   -9.9559   -3.3039 O.2       1 <0>        -0.4421
     19 N3          0.0778  -10.4658   -4.0090 N.am      1 <0>        -0.5367
     20 C13         1.2218   -9.8009   -4.2068 C.2       1 <0>         0.5275
     21 S1          2.6653  -10.5349   -4.7622 S.2       1 <0>        -0.5354
     22 N4          1.1112   -8.4873   -3.9220 N.pl3     1 <0>        -0.5454
     23 C14         2.1629   -7.4730   -4.0291 C.3       1 <0>         0.1575
     24 C15         2.5277   -7.2788   -5.4783 C.ar      1 <0>        -0.1046
     25 C16         3.7760   -7.5970   -5.9181 C.ar      1 <0>        -0.0578
     26 C17         4.1316   -7.4242   -7.2542 C.ar      1 <0>        -0.1174
     27 C18         3.2411   -6.9318   -8.1584 C.ar      1 <0>        -0.0955
     28 C19         1.9430   -6.5921   -7.7416 C.ar      1 <0>        -0.0580
     29 C20         1.5794   -6.7737   -6.3836 C.ar      1 <0>        -0.0290
     30 C21         0.2790   -6.4393   -5.9680 C.ar      1 <0>        -0.1233
     31 C22        -0.6129   -5.9526   -6.8733 C.ar      1 <0>        -0.1145
     32 C23        -0.2573   -5.7802   -8.2099 C.ar      1 <0>        -0.1208
     33 C24         0.9965   -6.0805   -8.6458 C.ar      1 <0>        -0.1025
     34 C25        -0.0894  -11.9028   -4.2396 C.3       1 <0>         0.0756
     35 H2          2.9894    1.9613    0.0905 H         1 <0>         0.0987
     36 H3          4.2907    1.4617   -1.0165 H         1 <0>         0.0833
     37 H4          2.8216    2.2331   -1.6606 H         1 <0>         0.0982
     38 H5          4.1674   -0.8419   -0.4118 H         1 <0>         0.4121
     39 H6          3.5879   -2.8744    1.0397 H         1 <0>         0.1311
     40 H7          2.4680   -5.0645    0.9841 H         1 <0>         0.1307
     41 H8          0.3576   -3.8955   -2.5463 H         1 <0>         0.1572
     42 H9          1.4695   -1.7014   -2.4844 H         1 <0>         0.1410
     43 H10         0.5758   -6.3640    0.0048 H         1 <0>         0.4154
     44 H11         0.2738   -8.4221   -1.4040 H         1 <0>         0.1112
     45 H12        -1.3427   -7.7330   -1.6876 H         1 <0>         0.1374
     46 H13         1.8026   -6.5310   -3.6157 H         1 <0>         0.1394
     47 H14         3.0417   -7.8009   -3.4740 H         1 <0>         0.0984
     48 H15         4.5018   -7.9889   -5.2210 H         1 <0>         0.1278
     49 H16         5.1287   -7.6846   -7.5772 H         1 <0>         0.1251
     50 H17         3.5309   -6.8026   -9.1907 H         1 <0>         0.1264
     51 H18        -0.0109   -6.5683   -4.9357 H         1 <0>         0.1381
     52 H19        -1.6115   -5.6965   -6.5512 H         1 <0>         0.1198
     53 H20        -0.9845   -5.3924   -8.9079 H         1 <0>         0.1217
     54 H21         1.2580   -5.9409   -9.6843 H         1 <0>         0.1260
     55 H22        -0.4089  -12.0710   -5.2681 H         1 <0>         0.0838
     56 H23         0.8589  -12.4114   -4.0660 H         1 <0>         0.1103
     57 H24        -0.8426  -12.2953   -3.5564 H         1 <0>         0.0937
@<TRIPOS>BOND
     1    1    2 1
     2    1   35 1
     3    1   36 1
     4    1   37 1
     5    2    3 2
     6    2    4 am
     7    4    5 1
     8    4   38 1
     9    5   10 ar
    10    5    6 ar
    11    6    7 ar
    12    6   39 1
    13    7    8 ar
    14    7   40 1
    15    8    9 ar
    16    8   11 1
    17    9   10 ar
    18    9   41 1
    19   10   42 1
    20   11   12 am
    21   11   43 1
    22   12   13 2
    23   12   14 1
    24   14   15 1
    25   14   44 1
    26   14   45 1
    27   15   16 1
    28   15   22 1
    29   15   17 1
    30   17   18 2
    31   17   19 am
    32   19   20 1
    33   19   34 1
    34   20   21 2
    35   20   22 1
    36   22   23 1
    37   23   24 1
    38   23   46 1
    39   23   47 1
    40   24   29 ar
    41   24   25 ar
    42   25   26 ar
    43   25   48 1
    44   26   27 ar
    45   26   49 1
    46   27   28 ar
    47   27   50 1
    48   28   33 ar
    49   28   29 ar
    50   29   30 ar
    51   30   31 ar
    52   30   51 1
    53   31   32 ar
    54   31   52 1
    55   32   33 ar
    56   32   53 1
    57   33   54 1
    58   34   55 1
    59   34   56 1
    60   34   57 1
@<TRIPOS>MOLECULE
ZINC58940618
   52    55     0     0     0
SMALL
USER_CHARGES

@<TRIPOS>ATOM
      1 C1          0.4066    1.4289    0.3474 C.ar      1 <0>        -0.0872
      2 C2          1.6554    2.0243    0.3652 C.ar      1 <0>        -0.1252
      3 C3          2.7935    1.2499    0.2737 C.ar      1 <0>        -0.0529
      4 C4          2.6830   -0.1370    0.1630 C.ar      1 <0>        -0.1189
      5 C5          1.4202   -0.7313    0.1456 C.ar      1 <0>        -0.0748
      6 C6          0.2901    0.0546    0.2378 C.ar      1 <0>        -0.1253
      7 C7          3.8984   -0.9731    0.0640 C.2       1 <0>         0.5798
      8 O1          4.9969   -0.4528    0.0790 O.2       1 <0>        -0.5051
      9 N1          3.7884   -2.3121   -0.0428 N.am      1 <0>        -0.4580
     10 N2          4.9401   -3.1043   -0.1366 N.pl3     1 <0>        -0.3574
     11 C8          5.4644   -3.7550   -1.3497 C.3       1 <0>         0.1015
     12 H1          5.7175   -3.0110   -2.1050 H         1 <0>         0.1540
     13 C9          6.7114   -4.4657   -0.8622 C.2       1 <0>         0.5261
     14 O2          7.4758   -5.1381   -1.5206 O.2       1 <0>        -0.4246
     15 N3          6.7941   -4.1939    0.4552 N.am      1 <0>        -0.4814
     16 C10         5.7860   -3.4143    0.8625 C.2       1 <0>         0.5280
     17 S1          5.5917   -2.8750    2.4757 S.2       1 <0>        -0.4918
     18 C11         7.8129   -4.6660    1.2942 C.ar      1 <0>         0.1075
     19 C12         7.4950   -5.3945    2.4325 C.ar      1 <0>        -0.0729
     20 C13         8.5011   -5.8584    3.2573 C.ar      1 <0>        -0.1083
     21 C14         9.8239   -5.5979    2.9502 C.ar      1 <0>        -0.0984
     22 C15        10.1437   -4.8722    1.8174 C.ar      1 <0>        -0.1093
     23 C16         9.1423   -4.4110    0.9855 C.ar      1 <0>        -0.0930
     24 C17         4.4507   -4.7584   -1.9033 C.3       1 <0>        -0.1441
     25 C18         3.2169   -4.0247   -2.3621 C.2       1 <0>         0.5123
     26 O3          3.1545   -2.8180   -2.2568 O.2       1 <0>        -0.5027
     27 N4          2.1828   -4.7095   -2.8896 N.am      1 <0>        -0.6661
     28 C19         1.0861   -4.0209   -3.4225 C.ar      1 <0>         0.1288
     29 C20         1.2756   -2.8090   -4.0732 C.ar      1 <0>        -0.0865
     30 C21         0.1926   -2.1314   -4.5981 C.ar      1 <0>        -0.1321
     31 C22        -1.0815   -2.6595   -4.4753 C.ar      1 <0>         0.0909
     32 C23        -1.2727   -3.8679   -3.8267 C.ar      1 <0>        -0.1334
     33 C24        -0.1916   -4.5517   -3.3058 C.ar      1 <0>        -0.1114
     34 F1         -2.1397   -1.9947   -4.9886 F         1 <0>        -0.1367
     35 H2         -0.4811    2.0393    0.4238 H         1 <0>         0.1298
     36 H3          1.7395    3.0976    0.4506 H         1 <0>         0.1333
     37 H4          3.7677    1.7159    0.2874 H         1 <0>         0.1376
     38 H5          1.3280   -1.8039    0.0597 H         1 <0>         0.1194
     39 H6         -0.6876   -0.4039    0.2244 H         1 <0>         0.1300
     40 H7          2.9118   -2.7273   -0.0548 H         1 <0>         0.4251
     41 H8          6.4619   -5.5980    2.6730 H         1 <0>         0.1325
     42 H9          8.2543   -6.4248    4.1431 H         1 <0>         0.1353
     43 H10        10.6089   -5.9617    3.5966 H         1 <0>         0.1321
     44 H11        11.1778   -4.6698    1.5805 H         1 <0>         0.1346
     45 H12         9.3929   -3.8484    0.0983 H         1 <0>         0.1263
     46 H13         4.8905   -5.2920   -2.7458 H         1 <0>         0.1387
     47 H14         4.1810   -5.4703   -1.1232 H         1 <0>         0.1160
     48 H15         2.1982   -5.6793   -2.9001 H         1 <0>         0.4161
     49 H16         2.2691   -2.3964   -4.1686 H         1 <0>         0.1427
     50 H17         0.3396   -1.1887   -5.1043 H         1 <0>         0.1403
     51 H18        -2.2672   -4.2780   -3.7316 H         1 <0>         0.1417
     52 H19        -0.3405   -5.4964   -2.8039 H         1 <0>         0.1374
@<TRIPOS>BOND
     1    1    6 ar
     2    1    2 ar
     3    1   35 1
     4    2    3 ar
     5    2   36 1
     6    3    4 ar
     7    3   37 1
     8    4    5 ar
     9    4    7 1
    10    5    6 ar
    11    5   38 1
    12    6   39 1
    13    7    8 2
    14    7    9 am
    15    9   10 1
    16    9   40 1
    17   10   16 1
    18   10   11 1
    19   11   12 1
    20   11   13 1
    21   11   24 1
    22   13   14 2
    23   13   15 am
    24   15   16 1
    25   15   18 1
    26   16   17 2
    27   18   23 ar
    28   18   19 ar
    29   19   20 ar
    30   19   41 1
    31   20   21 ar
    32   20   42 1
    33   21   22 ar
    34   21   43 1
    35   22   23 ar
    36   22   44 1
    37   23   45 1
    38   24   25 1
    39   24   46 1
    40   24   47 1
    41   25   26 2
    42   25   27 am
    43   27   28 1
    44   27   48 1
    45   28   33 ar
    46   28   29 ar
    47   29   30 ar
    48   29   49 1
    49   30   31 ar
    50   30   50 1
    51   31   32 ar
    52   31   34 1
    53   32   33 ar
    54   32   51 1
    55   33   52 1
@<TRIPOS>MOLECULE
ZINC00687054
   42    44     0     0     0
SMALL
USER_CHARGES
N-(3-cyano-6-methyl-4,5,6,7-tetrahydrobenzothiophen-2-yl)-3-methyl-4-nitro-benzamide
@<TRIPOS>ATOM
      1 C1         -7.2538   -9.3462   -0.2951 C.3       1 <0>        -0.1302
      2 C2         -5.8377   -9.1093    0.1625 C.ar      1 <0>        -0.0230
      3 C3         -5.2195   -7.9055   -0.1068 C.ar      1 <0>        -0.0508
      4 C4         -3.9063   -7.6895    0.3140 C.ar      1 <0>        -0.0865
      5 C5         -3.2305   -8.6907    1.0142 C.ar      1 <0>        -0.0888
      6 C6         -3.8619   -9.8876    1.2810 C.ar      1 <0>        -0.0570
      7 C7         -5.1622  -10.0973    0.8564 C.ar      1 <0>        -0.0129
      8 N1         -5.8334  -11.3842    1.1463 N.pl3     1 <0>         0.0179
      9 O1         -7.0206  -11.4043    1.4180 O.2       1 <0>        -0.1358
     10 O2         -5.1987  -12.4232    1.1132 O.3       1 <0>        -0.1458
     11 C8         -3.2362   -6.4043    0.0250 C.2       1 <0>         0.5573
     12 O3         -3.8271   -5.5344   -0.5849 O.2       1 <0>        -0.4775
     13 N2         -1.9700   -6.1967    0.4375 N.am      1 <0>        -0.6132
     14 C9         -1.3413   -4.9908    0.1663 C.2       1 <0>         0.0807
     15 C10        -0.0559   -4.5937    0.5047 C.2       1 <0>        -0.1199
     16 C11         0.3656   -3.2644    0.0987 C.2       1 <0>        -0.0614
     17 C12        -0.5604   -2.5488   -0.5774 C.2       1 <0>        -0.2001
     18 S1         -1.9708   -3.6142   -0.6769 S.3       1 <0>         0.2606
     19 C13        -0.4104   -1.1606   -1.1188 C.3       1 <0>        -0.0328
     20 C14         1.0827   -0.8017   -1.1219 C.3       1 <0>        -0.0872
     21 H1          1.5936   -1.3619   -1.9050 H         1 <0>         0.0779
     22 C15         1.6799   -1.1635    0.2411 C.3       1 <0>        -0.1153
     23 C16         1.7431   -2.6842    0.3945 C.3       1 <0>        -0.0623
     24 C17         1.2489    0.6984   -1.3727 C.3       1 <0>        -0.1485
     25 C18         0.8234   -5.4627    1.2275 C.1       1 <0>         0.2646
     26 N3          1.5209   -6.1521    1.8008 N.1       1 <0>        -0.4188
     27 H2         -7.9419   -9.1157    0.5183 H         1 <0>         0.1015
     28 H3         -7.4721   -8.7042   -1.1485 H         1 <0>         0.0862
     29 H4         -7.3718  -10.3899   -0.5861 H         1 <0>         0.0790
     30 H5         -5.7493   -7.1335   -0.6450 H         1 <0>         0.1661
     31 H6         -2.2155   -8.5285    1.3458 H         1 <0>         0.1486
     32 H7         -3.3402  -10.6631    1.8222 H         1 <0>         0.1600
     33 H8         -1.4985   -6.8909    0.9241 H         1 <0>         0.4214
     34 H9         -0.9555   -0.4592   -0.4871 H         1 <0>         0.0872
     35 H10        -0.8002   -1.1190   -2.1359 H         1 <0>         0.0847
     36 H11         2.6854   -0.7498    0.3171 H         1 <0>         0.0730
     37 H12         1.0561   -0.7467    1.0319 H         1 <0>         0.0690
     38 H13         2.4700   -3.0924   -0.3076 H         1 <0>         0.0812
     39 H14         2.0372   -2.9367    1.4132 H         1 <0>         0.0756
     40 H15         2.3087    0.9533   -1.3623 H         1 <0>         0.0591
     41 H16         0.8233    0.9539   -2.3431 H         1 <0>         0.0585
     42 H17         0.7333    1.2568   -0.5915 H         1 <0>         0.0577
@<TRIPOS>BOND
     1    1    2 1
     2    1   27 1
     3    1   28 1
     4    1   29 1
     5    2    7 ar
     6    2    3 ar
     7    3    4 ar
     8    3   30 1
     9    4    5 ar
    10    4   11 1
    11    5    6 ar
    12    5   31 1
    13    6    7 ar
    14    6   32 1
    15    7    8 1
    16    8    9 2
    17    8   10 1
    18   11   12 2
    19   11   13 am
    20   13   14 1
    21   13   33 1
    22   14   18 1
    23   14   15 2
    24   15   16 1
    25   15   25 1
    26   16   23 1
    27   16   17 2
    28   17   18 1
    29   17   19 1
    30   19   20 1
    31   19   34 1
    32   19   35 1
    33   20   21 1
    34   20   22 1
    35   20   24 1
    36   22   23 1
    37   22   36 1
    38   22   37 1
    39   23   38 1
    40   23   39 1
    41   24   40 1
    42   24   41 1
    43   24   42 1
    44   25   26 3
@<TRIPOS>MOLECULE
ZINC07493356
   38    40     0     0     0
SMALL
USER_CHARGES
N-(2-chloro-4-nitro-phenyl)-2-(2-thia-5-azabicyclo[4.4.0]deca-7,9,11-trien-5-yl)acetamide
@<TRIPOS>ATOM
      1 C1          1.9508    0.6592    3.3482 C.ar      1 <0>        -0.0891
      2 C2          1.3408    0.3110    4.5393 C.ar      1 <0>        -0.1313
      3 C3         -0.0346    0.3729    4.6455 C.ar      1 <0>        -0.0691
      4 C4         -0.8057    0.7816    3.5638 C.ar      1 <0>        -0.1058
      5 C5         -0.2003    1.1466    2.3670 C.ar      1 <0>         0.1406
      6 C6          1.1925    1.0729    2.2742 C.ar      1 <0>        -0.1617
      7 N1         -0.8794    1.5901    1.2371 N.pl3     1 <0>        -0.4845
      8 C7         -2.2593    1.1510    1.0865 C.3       1 <0>         0.0479
      9 C8         -3.0971    1.7069    2.2504 C.3       1 <0>        -0.1027
     10 S1         -2.5628    0.8170    3.7461 S.3       1 <0>        -0.1229
     11 C9         -0.1052    1.3208    0.0181 C.3       1 <0>         0.0391
     12 C10         0.0721   -0.1667   -0.1461 C.2       1 <0>         0.4853
     13 O1         -0.4001   -0.9276    0.6719 O.2       1 <0>        -0.4881
     14 N2          0.7553   -0.6515   -1.2019 N.am      1 <0>        -0.6693
     15 C11         0.8336   -2.0335   -1.4101 C.ar      1 <0>         0.2163
     16 C12        -0.2293   -2.8523   -1.0528 C.ar      1 <0>        -0.1122
     17 C13        -0.1491   -4.2156   -1.2594 C.ar      1 <0>        -0.0248
     18 C14         0.9882   -4.7659   -1.8216 C.ar      1 <0>        -0.0518
     19 C15         2.0488   -3.9542   -2.1789 C.ar      1 <0>        -0.0230
     20 C16         1.9729   -2.5883   -1.9801 C.ar      1 <0>        -0.0733
     21 Cl1         3.3020   -1.5685   -2.4353 Cl        1 <0>        -0.0288
     22 N3          1.0700   -6.2274   -2.0419 N.pl3     1 <0>         0.0295
     23 O2          0.1363   -6.9438   -1.7281 O.2       1 <0>        -0.1506
     24 O3          2.0710   -6.7136   -2.5369 O.3       1 <0>        -0.1531
     25 H1          3.0258    0.6068    3.2591 H         1 <0>         0.1249
     26 H2          1.9367   -0.0079    5.3817 H         1 <0>         0.1288
     27 H3         -0.5140    0.1018    5.5745 H         1 <0>         0.1294
     28 H4          1.6804    1.3428    1.3492 H         1 <0>         0.1225
     29 H5         -2.6579    1.5206    0.1417 H         1 <0>         0.0989
     30 H6         -2.2980    0.0617    1.0977 H         1 <0>         0.0799
     31 H7         -4.1564    1.5269    2.0672 H         1 <0>         0.1219
     32 H8         -2.9149    2.7753    2.3665 H         1 <0>         0.1026
     33 H9          0.8723    1.7968    0.0959 H         1 <0>         0.1275
     34 H10        -0.6364    1.7209   -0.8455 H         1 <0>         0.1258
     35 H11         1.1927   -0.0427   -1.8175 H         1 <0>         0.4208
     36 H12        -1.1182   -2.4235   -0.6140 H         1 <0>         0.1659
     37 H13        -0.9759   -4.8526   -0.9819 H         1 <0>         0.1654
     38 H14         2.9355   -4.3870   -2.6180 H         1 <0>         0.1693
@<TRIPOS>BOND
     1    1    6 ar
     2    1    2 ar
     3    1   25 1
     4    2    3 ar
     5    2   26 1
     6    3    4 ar
     7    3   27 1
     8    4   10 1
     9    4    5 ar
    10    5    6 ar
    11    5    7 1
    12    6   28 1
    13    7    8 1
    14    7   11 1
    15    8    9 1
    16    8   29 1
    17    8   30 1
    18    9   10 1
    19    9   31 1
    20    9   32 1
    21   11   12 1
    22   11   33 1
    23   11   34 1
    24   12   13 2
    25   12   14 am
    26   14   15 1
    27   14   35 1
    28   15   20 ar
    29   15   16 ar
    30   16   17 ar
    31   16   36 1
    32   17   18 ar
    33   17   37 1
    34   18   19 ar
    35   18   22 1
    36   19   20 ar
    37   19   38 1
    38   20   21 1
    39   22   23 2
    40   22   24 1
@<TRIPOS>MOLECULE
ZINC21002287
   41    45     0     0     0
SMALL
USER_CHARGES
N-[4-[5-(2-furyl)-1,3,4-oxadiazol-2-yl]phenyl]-1-(1H-indol-3-yl)methanimine
@<TRIPOS>ATOM
      1 C1          3.4469   -1.6878   -0.0391 C.ar      1 <0>        -0.1431
      2 C2          2.9727   -2.9918   -0.0416 C.ar      1 <0>        -0.0999
      3 C3          1.6188   -3.2463   -0.0304 C.ar      1 <0>        -0.1284
      4 C4          0.7138   -2.1897   -0.0165 C.ar      1 <0>         0.0743
      5 C5          1.1954   -0.8710   -0.0140 C.ar      1 <0>        -0.0710
      6 C6          2.5666   -0.6281   -0.0254 C.ar      1 <0>        -0.0627
      7 C7          0.0021   -0.0041    0.0020 C.2       1 <0>        -0.1881
      8 C8         -1.0804   -0.8365    0.0139 C.2       1 <0>         0.1291
      9 N1         -0.6645   -2.1281   -0.0030 N.pl3     1 <0>        -0.5911
     10 H1         -1.2565   -3.0552   -0.0068 H         1 <0>         0.4497
     11 C9         -0.0178    1.4605    0.0101 C.2       1 <0>         0.2574
     12 N2          1.1055    2.1296    0.0029 N.2       1 <0>        -0.5034
     13 C10         1.0870    3.4954    0.0105 C.ar      1 <0>         0.1329
     14 C11         0.2169    4.1878   -0.8383 C.ar      1 <0>        -0.1630
     15 C12         0.1948    5.5532   -0.8269 C.ar      1 <0>        -0.0580
     16 C13         1.0502    6.2594    0.0250 C.ar      1 <0>        -0.0531
     17 C14         1.9239    5.5673    0.8698 C.ar      1 <0>        -0.0432
     18 C15         1.9421    4.2019    0.8627 C.ar      1 <0>        -0.1142
     19 C16         1.0305    7.7341    0.0327 C.2       1 <0>         0.2264
     20 N3          1.7769    8.5179    0.7790 N.2       1 <0>        -0.2694
     21 N4          1.4949    9.7471    0.5244 N.2       1 <0>        -0.2487
     22 C17         0.5551    9.7980   -0.3968 C.2       1 <0>         0.2403
     23 O1          0.2470    8.5263   -0.7294 O.3       1 <0>        -0.2121
     24 C18        -0.0434   11.0141   -0.9622 C.2       1 <0>         0.0294
     25 C19         0.2768   12.2964   -0.6244 C.2       1 <0>        -0.1134
     26 C20        -0.5358   13.1361   -1.4077 C.2       1 <0>        -0.2162
     27 C21        -1.3046   12.3384   -2.1774 C.2       1 <0>         0.0023
     28 O2         -1.0011   11.0584   -1.9099 O.3       1 <0>        -0.1639
     29 H2          4.5108   -1.5027   -0.0476 H         1 <0>         0.1237
     30 H3          3.6716   -3.8150   -0.0520 H         1 <0>         0.1256
     31 H4          1.2603   -4.2651   -0.0321 H         1 <0>         0.1205
     32 H5          2.9381    0.3860   -0.0232 H         1 <0>         0.1342
     33 H6         -2.1115   -0.5154    0.0313 H         1 <0>         0.1808
     34 H7         -0.9778    1.9975    0.0222 H         1 <0>         0.1131
     35 H8         -0.4405    3.6425   -1.4993 H         1 <0>         0.1328
     36 H9         -0.4798    6.0878   -1.4792 H         1 <0>         0.1331
     37 H10         2.5843    6.1128    1.5275 H         1 <0>         0.1455
     38 H11         2.6166    3.6674    1.5154 H         1 <0>         0.1415
     39 H12         1.0121   12.6069    0.1032 H         1 <0>         0.1682
     40 H13        -0.5429   14.2160   -1.3951 H         1 <0>         0.1647
     41 H14        -2.0400   12.6743   -2.8934 H         1 <0>         0.2174
@<TRIPOS>BOND
     1    1    6 ar
     2    1    2 ar
     3    1   29 1
     4    2    3 ar
     5    2   30 1
     6    3    4 ar
     7    3   31 1
     8    4    9 1
     9    4    5 ar
    10    5    6 ar
    11    5    7 1
    12    6   32 1
    13    7    8 2
    14    7   11 1
    15    8    9 1
    16    8   33 1
    17    9   10 1
    18   11   12 2
    19   11   34 1
    20   12   13 1
    21   13   18 ar
    22   13   14 ar
    23   14   15 ar
    24   14   35 1
    25   15   16 ar
    26   15   36 1
    27   16   17 ar
    28   16   19 1
    29   17   18 ar
    30   17   37 1
    31   18   38 1
    32   19   23 1
    33   19   20 2
    34   20   21 1
    35   21   22 2
    36   22   23 1
    37   22   24 1
    38   24   28 1
    39   24   25 2
    40   25   26 1
    41   25   39 1
    42   26   27 2
    43   26   40 1
    44   27   28 1
    45   27   41 1
@<TRIPOS>MOLECULE
ZINC41007286
   31    33     0     0     0
SMALL
USER_CHARGES

@<TRIPOS>ATOM
      1 C1          1.0721   -0.4522   -0.7669 C.ar      1 <0>        -0.1235
      2 C2          2.2559    0.2591   -0.7787 C.ar      1 <0>        -0.0297
      3 C3          2.3763    1.4165   -0.0316 C.ar      1 <0>        -0.0654
      4 C4          1.3127    1.8657    0.7296 C.ar      1 <0>        -0.0301
      5 C5          0.1260    1.1593    0.7455 C.ar      1 <0>        -0.1420
      6 C6          0.0017   -0.0036   -0.0038 C.ar      1 <0>         0.2000
      7 N1         -1.1983   -0.7211    0.0101 N.am      1 <0>        -0.6631
      8 C7         -1.1816   -2.0644   -0.0990 C.2       1 <0>         0.6086
      9 O1         -0.1210   -2.6604   -0.1129 O.2       1 <0>        -0.4816
     10 C8         -2.4442   -2.8089   -0.2012 C.2       1 <0>        -0.0391
     11 C9         -2.5491   -4.1589   -0.3094 C.2       1 <0>        -0.0821
     12 C10        -3.9805   -4.4494   -0.3818 C.ar      1 <0>        -0.1454
     13 C11        -4.7313   -5.6218   -0.4987 C.ar      1 <0>        -0.0224
     14 C12        -6.0957   -5.5509   -0.5409 C.ar      1 <0>        -0.1098
     15 C13        -6.7389   -4.3218   -0.4681 C.ar      1 <0>        -0.0509
     16 C14        -6.0159   -3.1545   -0.3525 C.ar      1 <0>        -0.1020
     17 C15        -4.6272   -3.2018   -0.3077 C.ar      1 <0>         0.0905
     18 O2         -3.6748   -2.2553   -0.1958 O.3       1 <0>        -0.1818
     19 Br1        -7.1143   -7.1362   -0.6998 Br        1 <0>        -0.0314
     20 N2          3.6467    2.1761   -0.0462 N.pl3     1 <0>         0.0350
     21 O3          4.5775    1.7845   -0.7109 O.2       1 <0>        -0.1573
     22 O4          3.7534    3.1882    0.6064 O.3       1 <0>        -0.1584
     23 H1          0.9774   -1.3538   -1.3538 H         1 <0>         0.1585
     24 H2          3.0885   -0.0891   -1.3718 H         1 <0>         0.1600
     25 H3          1.4102    2.7696    1.3125 H         1 <0>         0.1606
     26 H4         -0.7041    1.5104    1.3405 H         1 <0>         0.1534
     27 H5         -2.0428   -0.2521    0.0982 H         1 <0>         0.4254
     28 H6         -1.7393   -4.8730   -0.3364 H         1 <0>         0.1785
     29 H7         -4.2358   -6.5798   -0.5560 H         1 <0>         0.1454
     30 H8         -7.8175   -4.2806   -0.5029 H         1 <0>         0.1515
     31 H9         -6.5271   -2.2047   -0.2972 H         1 <0>         0.1485
@<TRIPOS>BOND
     1    1    6 ar
     2    1    2 ar
     3    1   23 1
     4    2    3 ar
     5    2   24 1
     6    3    4 ar
     7    3   20 1
     8    4    5 ar
     9    4   25 1
    10    5    6 ar
    11    5   26 1
    12    6    7 1
    13    7    8 am
    14    7   27 1
    15    8    9 2
    16    8   10 1
    17   10   18 1
    18   10   11 2
    19   11   12 1
    20   11   28 1
    21   12   17 ar
    22   12   13 ar
    23   13   14 ar
    24   13   29 1
    25   14   15 ar
    26   14   19 1
    27   15   16 ar
    28   15   30 1
    29   16   17 ar
    30   16   31 1
    31   17   18 1
    32   20   21 2
    33   20   22 1
@<TRIPOS>MOLECULE
ZINC58871591
   34    35     0     0     0
SMALL
USER_CHARGES

@<TRIPOS>ATOM
      1 C1         -0.6179    1.4314   -0.0662 C.3       1 <0>        -0.1608
      2 C2         -0.2846   -0.0380   -0.0347 C.ar      1 <0>         0.0525
      3 C3         -0.3609   -0.7980   -1.2035 C.ar      1 <0>        -0.1436
      4 C4         -0.0501   -2.1583   -1.1656 C.ar      1 <0>        -0.0323
      5 C5          0.3302   -2.7429    0.0249 C.ar      1 <0>        -0.1302
      6 C6          0.4033   -1.9842    1.1794 C.ar      1 <0>        -0.0203
      7 C7          0.1019   -0.6339    1.1476 C.ar      1 <0>        -0.0621
      8 N1          0.1888    0.1714    2.3866 N.pl3     1 <0>         0.0357
      9 O1          0.3955   -0.3712    3.4470 O.2       1 <0>        -0.1560
     10 O2          0.0530    1.3718    2.3381 O.3       1 <0>        -0.1450
     11 C8         -0.7694   -0.1651   -2.4750 C.2       1 <0>         0.5816
     12 O3         -0.9334    1.0384   -2.5299 O.2       1 <0>        -0.4762
     13 N2         -0.9602   -0.9220   -3.5737 N.am      1 <0>        -0.5788
     14 N3         -1.3475   -0.3221   -4.7790 N.2       1 <0>        -0.2208
     15 C9         -1.5312   -1.0510   -5.8371 C.2       1 <0>         0.1139
     16 C10        -1.9388   -0.4195   -7.1058 C.ar      1 <0>        -0.0447
     17 C11        -2.1226    0.9637   -7.1737 C.ar      1 <0>        -0.0717
     18 C12        -2.5039    1.5479   -8.3634 C.ar      1 <0>        -0.0947
     19 C13        -2.7046    0.7666   -9.4888 C.ar      1 <0>        -0.0749
     20 C14        -2.5246   -0.6050   -9.4282 C.ar      1 <0>        -0.0952
     21 C15        -2.1374   -1.2012   -8.2465 C.ar      1 <0>        -0.0822
     22 Br1        -3.2274    1.5764  -11.1157 Br        1 <0>        -0.0429
     23 H1          0.2812    2.0030   -0.2963 H         1 <0>         0.0978
     24 H2         -1.3719    1.6166   -0.8312 H         1 <0>         0.1095
     25 H3         -1.0041    1.7373    0.9061 H         1 <0>         0.1026
     26 H4         -0.1074   -2.7518   -2.0661 H         1 <0>         0.1439
     27 H5          0.5710   -3.7953    0.0556 H         1 <0>         0.1576
     28 H6          0.7008   -2.4469    2.1088 H         1 <0>         0.1617
     29 H7         -0.8294   -1.8822   -3.5299 H         1 <0>         0.3861
     30 H8         -1.3855   -2.1200   -5.7883 H         1 <0>         0.1267
     31 H9         -1.9667    1.5741   -6.2965 H         1 <0>         0.1452
     32 H10        -2.6466    2.6170   -8.4172 H         1 <0>         0.1389
     33 H11        -2.6835   -1.2087  -10.3095 H         1 <0>         0.1396
     34 H12        -1.9923   -2.2705   -8.2019 H         1 <0>         0.1393
@<TRIPOS>BOND
     1    1    2 1
     2    1   23 1
     3    1   24 1
     4    1   25 1
     5    2    7 ar
     6    2    3 ar
     7    3    4 ar
     8    3   11 1
     9    4    5 ar
    10    4   26 1
    11    5    6 ar
    12    5   27 1
    13    6    7 ar
    14    6   28 1
    15    7    8 1
    16    8    9 2
    17    8   10 1
    18   11   12 2
    19   11   13 am
    20   13   14 1
    21   13   29 1
    22   14   15 2
    23   15   16 1
    24   15   30 1
    25   16   21 ar
    26   16   17 ar
    27   17   18 ar
    28   17   31 1
    29   18   19 ar
    30   18   32 1
    31   19   20 ar
    32   19   22 1
    33   20   21 ar
    34   20   33 1
    35   21   34 1
@<TRIPOS>MOLECULE
ZINC01068535
   52    54     0     0     0
SMALL
USER_CHARGES
N-[[3-chloro-2-(1-piperidyl)phenyl]thiocarbamoyl]-2-methoxy-3-methyl-benzamide
@<TRIPOS>ATOM
      1 C1          3.2553   10.7862    5.7578 C.3       1 <0>        -0.1135
      2 C2          2.4843    9.8590    4.8540 C.ar      1 <0>        -0.1090
      3 C3          1.7274   10.3750    3.8206 C.ar      1 <0>        -0.0757
      4 C4          1.0151    9.5312    2.9843 C.ar      1 <0>        -0.1258
      5 C5          1.0553    8.1669    3.1748 C.ar      1 <0>        -0.0834
      6 C6          1.8173    7.6312    4.2161 C.ar      1 <0>        -0.1590
      7 C7          2.5322    8.4892    5.0638 C.ar      1 <0>         0.1627
      8 O1          3.2715    7.9812    6.0815 O.3       1 <0>        -0.3183
      9 C8          4.6344    7.6603    5.7960 C.3       1 <0>         0.0473
     10 C9          1.8646    6.1724    4.4260 C.2       1 <0>         0.5317
     11 O2          2.5287    5.7101    5.3332 O.2       1 <0>        -0.3811
     12 N1          1.1714    5.3516    3.6122 N.am      1 <0>        -0.6391
     13 C10         1.2146    4.0183    3.8041 C.2       1 <0>         0.5146
     14 S1          2.1500    3.3672    5.0817 S.2       1 <0>        -0.4895
     15 N2          0.5214    3.1975    2.9903 N.pl3     1 <0>        -0.6015
     16 C11         0.4771    1.8221    3.2548 C.ar      1 <0>         0.1487
     17 C12         1.6239    1.1542    3.6583 C.ar      1 <0>        -0.0619
     18 C13         1.5797   -0.2035    3.9137 C.ar      1 <0>        -0.1050
     19 C14         0.3931   -0.8996    3.7736 C.ar      1 <0>        -0.0909
     20 C15        -0.7568   -0.2409    3.3773 C.ar      1 <0>        -0.0695
     21 C16        -0.7210    1.1224    3.1188 C.ar      1 <0>         0.0976
     22 N3         -1.8833    1.7916    2.7171 N.pl3     1 <0>        -0.5010
     23 C17        -2.9117    1.7349    3.7638 C.3       1 <0>         0.0449
     24 C18        -4.1080    2.5959    3.3522 C.3       1 <0>        -0.1135
     25 C19        -4.6727    2.0764    2.0272 C.3       1 <0>        -0.1224
     26 C20        -3.5686    2.1003    0.9665 C.3       1 <0>        -0.1130
     27 C21        -2.3879    1.2536    1.4473 C.3       1 <0>         0.0376
     28 Cl1        -2.2444   -1.1188    3.2038 Cl        1 <0>        -0.0547
     29 H1          2.6293   11.0740    6.6024 H         1 <0>         0.0782
     30 H2          4.1477   10.2782    6.1234 H         1 <0>         0.0716
     31 H3          3.5466   11.6770    5.2013 H         1 <0>         0.0709
     32 H4          1.6903   11.4429    3.6637 H         1 <0>         0.1357
     33 H5          0.4257    9.9444    2.1791 H         1 <0>         0.1354
     34 H6          0.4989    7.5128    2.5199 H         1 <0>         0.1258
     35 H7          4.6733    6.9124    5.0040 H         1 <0>         0.0494
     36 H8          5.1594    8.5592    5.4729 H         1 <0>         0.0432
     37 H9          5.1101    7.2644    6.6932 H         1 <0>         0.0990
     38 H10         0.6414    5.7205    2.8884 H         1 <0>         0.4087
     39 H11         0.0532    3.5589    2.2215 H         1 <0>         0.4136
     40 H12         2.5524    1.6944    3.7692 H         1 <0>         0.1642
     41 H13         2.4747   -0.7223    4.2241 H         1 <0>         0.1415
     42 H14         0.3640   -1.9603    3.9744 H         1 <0>         0.1366
     43 H15        -2.4984    2.1110    4.6997 H         1 <0>         0.0734
     44 H16        -3.2361    0.7031    3.8987 H         1 <0>         0.0597
     45 H17        -4.8777    2.5413    4.1221 H         1 <0>         0.0698
     46 H18        -3.7871    3.6305    3.2304 H         1 <0>         0.0676
     47 H19        -5.0294    1.0549    2.1587 H         1 <0>         0.0605
     48 H20        -5.4979    2.7132    1.7083 H         1 <0>         0.0656
     49 H21        -3.9529    1.6915    0.0320 H         1 <0>         0.0698
     50 H22        -3.2392    3.1270    0.8072 H         1 <0>         0.0677
     51 H23        -2.7148    0.2241    1.5932 H         1 <0>         0.0616
     52 H24        -1.5941    1.2803    0.7007 H         1 <0>         0.0731
@<TRIPOS>BOND
     1    1    2 1
     2    1   29 1
     3    1   30 1
     4    1   31 1
     5    2    7 ar
     6    2    3 ar
     7    3    4 ar
     8    3   32 1
     9    4    5 ar
    10    4   33 1
    11    5    6 ar
    12    5   34 1
    13    6    7 ar
    14    6   10 1
    15    7    8 1
    16    8    9 1
    17    9   35 1
    18    9   36 1
    19    9   37 1
    20   10   11 2
    21   10   12 am
    22   12   13 1
    23   12   38 1
    24   13   14 2
    25   13   15 1
    26   15   16 1
    27   15   39 1
    28   16   21 ar
    29   16   17 ar
    30   17   18 ar
    31   17   40 1
    32   18   19 ar
    33   18   41 1
    34   19   20 ar
    35   19   42 1
    36   20   21 ar
    37   20   28 1
    38   21   22 1
    39   22   27 1
    40   22   23 1
    41   23   24 1
    42   23   43 1
    43   23   44 1
    44   24   25 1
    45   24   45 1
    46   24   46 1
    47   25   26 1
    48   25   47 1
    49   25   48 1
    50   26   27 1
    51   26   49 1
    52   26   50 1
    53   27   51 1
    54   27   52 1
@<TRIPOS>MOLECULE
ZINC06477990
   45    46     0     0     0
SMALL
USER_CHARGES
N'-(2,4-dichlorophenyl)-N-[(2,4-dimethylphenyl)methyleneamino]butanediamide
@<TRIPOS>ATOM
      1 C1          3.6092   -0.8111   -0.3908 C.3       1 <0>        -0.1200
      2 C2          2.3664   -0.0166   -0.0824 C.ar      1 <0>        -0.0619
      3 C3          1.1812   -0.6735    0.1989 C.ar      1 <0>        -0.1341
      4 C4          0.0398    0.0471    0.4815 C.ar      1 <0>        -0.0792
      5 C5          0.0821    1.4435    0.4839 C.ar      1 <0>        -0.0739
      6 C6          1.2817    2.0997    0.1996 C.ar      1 <0>        -0.0358
      7 C7          2.4155    1.3660   -0.0823 C.ar      1 <0>        -0.1305
      8 C8          1.3372    3.6057    0.1993 C.3       1 <0>        -0.1146
      9 C9         -1.1358    2.2211    0.7792 C.2       1 <0>         0.1126
     10 N1         -1.0715    3.5129    0.8832 N.2       1 <0>        -0.2255
     11 N2         -2.2284    4.2515    1.1638 N.am      1 <0>        -0.5900
     12 C10        -2.1616    5.5933    1.2718 C.2       1 <0>         0.5321
     13 O1         -1.0997    6.1614    1.1262 O.2       1 <0>        -0.5040
     14 C11        -3.4061    6.3879    1.5736 C.3       1 <0>        -0.1207
     15 C12        -3.0569    7.8759    1.6425 C.3       1 <0>        -0.1254
     16 C13        -4.3014    8.6704    1.9443 C.2       1 <0>         0.5199
     17 O2         -5.3631    8.1024    2.0899 O.2       1 <0>        -0.5139
     18 N3         -4.2345   10.0122    2.0523 N.am      1 <0>        -0.6676
     19 C14        -5.3627   10.7395    2.4511 C.ar      1 <0>         0.1671
     20 C15        -6.3661   10.1203    3.1842 C.ar      1 <0>        -0.1116
     21 C16        -7.4776   10.8399    3.5767 C.ar      1 <0>        -0.0804
     22 C17        -7.5922   12.1775    3.2407 C.ar      1 <0>        -0.0451
     23 C18        -6.5943   12.7979    2.5102 C.ar      1 <0>        -0.0785
     24 C19        -5.4774   12.0838    2.1188 C.ar      1 <0>        -0.0622
     25 Cl1        -4.2222   12.8640    1.2080 Cl        1 <0>        -0.0500
     26 Cl2        -8.9910   13.0786    3.7360 Cl        1 <0>        -0.0552
     27 H1          3.6669   -0.9936   -1.4638 H         1 <0>         0.0740
     28 H2          4.4875   -0.2510   -0.0698 H         1 <0>         0.0686
     29 H3          3.5723   -1.7634    0.1383 H         1 <0>         0.0688
     30 H4          1.1500   -1.7531    0.1967 H         1 <0>         0.1269
     31 H5         -0.8844   -0.4668    0.7008 H         1 <0>         0.1284
     32 H6          3.3436    1.8721   -0.3033 H         1 <0>         0.1260
     33 H7          1.4572    3.9651    1.2213 H         1 <0>         0.0754
     34 H8          2.1818    3.9381   -0.4043 H         1 <0>         0.0559
     35 H9          0.4127    4.0033   -0.2195 H         1 <0>         0.0963
     36 H10        -2.0812    1.7153    0.9089 H         1 <0>         0.1215
     37 H11        -3.0775    3.7973    1.2803 H         1 <0>         0.3866
     38 H12        -4.1419    6.2234    0.7865 H         1 <0>         0.1086
     39 H13        -3.8190    6.0669    2.5299 H         1 <0>         0.1086
     40 H14        -2.3210    8.0404    2.4296 H         1 <0>         0.1125
     41 H15        -2.6439    8.1968    0.6862 H         1 <0>         0.1113
     42 H16        -3.4049   10.4740    1.8538 H         1 <0>         0.4181
     43 H17        -6.2773    9.0766    3.4475 H         1 <0>         0.1665
     44 H18        -8.2582   10.3583    4.1470 H         1 <0>         0.1452
     45 H19        -6.6861   13.8419    2.2492 H         1 <0>         0.1492
@<TRIPOS>BOND
     1    1    2 1
     2    1   27 1
     3    1   28 1
     4    1   29 1
     5    2    7 ar
     6    2    3 ar
     7    3    4 ar
     8    3   30 1
     9    4    5 ar
    10    4   31 1
    11    5    6 ar
    12    5    9 1
    13    6    7 ar
    14    6    8 1
    15    7   32 1
    16    8   33 1
    17    8   34 1
    18    8   35 1
    19    9   10 2
    20    9   36 1
    21   10   11 1
    22   11   12 am
    23   11   37 1
    24   12   13 2
    25   12   14 1
    26   14   15 1
    27   14   38 1
    28   14   39 1
    29   15   16 1
    30   15   40 1
    31   15   41 1
    32   16   17 2
    33   16   18 am
    34   18   19 1
    35   18   42 1
    36   19   24 ar
    37   19   20 ar
    38   20   21 ar
    39   20   43 1
    40   21   22 ar
    41   21   44 1
    42   22   23 ar
    43   22   26 1
    44   23   24 ar
    45   23   45 1
    46   24   25 1
@<TRIPOS>MOLECULE
ZINC13979920
   54    57     0     0     0
SMALL
USER_CHARGES
4-phenyl-N'-[2-(2-phenylphenoxy)acetyl]benzohydrazide
@<TRIPOS>ATOM
      1 C1          0.0396   -2.7724   -0.0146 C.ar      1 <0>        -0.1114
      2 C2         -1.1691   -2.0998    0.0015 C.ar      1 <0>        -0.1187
      3 C3         -1.1940   -0.7201    0.0096 C.ar      1 <0>        -0.1044
      4 C4          0.0021   -0.0041    0.0020 C.ar      1 <0>        -0.0599
      5 C5          1.2170   -0.6872   -0.0191 C.ar      1 <0>        -0.1041
      6 C6          1.2297   -2.0672   -0.0222 C.ar      1 <0>        -0.1186
      7 C7         -0.0180    1.4786    0.0102 C.ar      1 <0>        -0.0075
      8 C8         -1.2358    2.1591    0.0196 C.ar      1 <0>        -0.1181
      9 C9         -1.2556    3.5355    0.0330 C.ar      1 <0>        -0.0787
     10 C10        -0.0556    4.2510    0.0254 C.ar      1 <0>        -0.1340
     11 C11         1.1633    3.5685    0.0101 C.ar      1 <0>        -0.0465
     12 C12         1.1808    2.1919    0.0026 C.ar      1 <0>        -0.1196
     13 C13        -0.0757    5.7280    0.0331 C.2       1 <0>         0.5651
     14 O1          0.9688    6.3501    0.0260 O.2       1 <0>        -0.5327
     15 N1         -1.2518    6.3859    0.0478 N.am      1 <0>        -0.5167
     16 N2         -1.2709    7.7868    0.0551 N.am      1 <0>        -0.5190
     17 C14        -2.4470    8.4447    0.0698 C.2       1 <0>         0.5173
     18 O2         -3.4890    7.8241    0.0768 O.2       1 <0>        -0.5075
     19 C15        -2.4675    9.9515    0.0776 C.3       1 <0>         0.0508
     20 O3         -3.8210   10.4095    0.0931 O.3       1 <0>        -0.2799
     21 C16        -4.0172   11.7536    0.1018 C.ar      1 <0>         0.1369
     22 C17        -2.9316   12.6150    0.0955 C.ar      1 <0>        -0.2086
     23 C18        -3.1325   13.9821    0.1044 C.ar      1 <0>        -0.0768
     24 C19        -4.4161   14.4991    0.1191 C.ar      1 <0>        -0.1512
     25 C20        -5.5062   13.6528    0.1250 C.ar      1 <0>        -0.0681
     26 C21        -5.3151   12.2730    0.1112 C.ar      1 <0>        -0.0716
     27 C22        -6.4834   11.3591    0.1118 C.ar      1 <0>        -0.0433
     28 C23        -6.5642   10.3267   -0.8209 C.ar      1 <0>        -0.0842
     29 C24        -7.6510    9.4761   -0.8124 C.ar      1 <0>        -0.1181
     30 C25        -8.6643    9.6537    0.1122 C.ar      1 <0>        -0.1176
     31 C26        -8.5919   10.6799    1.0369 C.ar      1 <0>        -0.1226
     32 C27        -7.5070   11.5330    1.0413 C.ar      1 <0>        -0.1078
     33 H1          0.0542   -3.8523   -0.0217 H         1 <0>         0.1251
     34 H2         -2.0951   -2.6556    0.0073 H         1 <0>         0.1267
     35 H3         -2.1382   -0.1960    0.0214 H         1 <0>         0.1273
     36 H4          2.1467   -0.1376   -0.0296 H         1 <0>         0.1276
     37 H5          2.1704   -2.5975   -0.0348 H         1 <0>         0.1268
     38 H6         -2.1633    1.6058    0.0207 H         1 <0>         0.1359
     39 H7         -2.1984    4.0621    0.0445 H         1 <0>         0.1296
     40 H8          2.0915    4.1205    0.0039 H         1 <0>         0.1422
     41 H9          2.1229    1.6641   -0.0096 H         1 <0>         0.1368
     42 H10        -2.0852    5.8895    0.0534 H         1 <0>         0.4332
     43 H11        -0.4375    8.2832    0.0494 H         1 <0>         0.4347
     44 H12        -1.9500   10.3173    0.9644 H         1 <0>         0.1019
     45 H13        -1.9673   10.3263   -0.8154 H         1 <0>         0.1021
     46 H14        -1.9275   12.2173    0.0834 H         1 <0>         0.1307
     47 H15        -2.2840   14.6501    0.0995 H         1 <0>         0.1282
     48 H16        -4.5653   15.5687    0.1256 H         1 <0>         0.1283
     49 H17        -6.5065   14.0599    0.1364 H         1 <0>         0.1329
     50 H18        -5.7757   10.1899   -1.5462 H         1 <0>         0.1204
     51 H19        -7.7125    8.6730   -1.5319 H         1 <0>         0.1217
     52 H20        -9.5151    8.9885    0.1124 H         1 <0>         0.1208
     53 H21        -9.3859   10.8140    1.7566 H         1 <0>         0.1225
     54 H22        -7.4513   12.3337    1.7640 H         1 <0>         0.1215
@<TRIPOS>BOND
     1    1    6 ar
     2    1    2 ar
     3    1   33 1
     4    2    3 ar
     5    2   34 1
     6    3    4 ar
     7    3   35 1
     8    4    5 ar
     9    4    7 1
    10    5    6 ar
    11    5   36 1
    12    6   37 1
    13    7   12 ar
    14    7    8 ar
    15    8    9 ar
    16    8   38 1
    17    9   10 ar
    18    9   39 1
    19   10   11 ar
    20   10   13 1
    21   11   12 ar
    22   11   40 1
    23   12   41 1
    24   13   14 2
    25   13   15 am
    26   15   16 1
    27   15   42 1
    28   16   17 am
    29   16   43 1
    30   17   18 2
    31   17   19 1
    32   19   20 1
    33   19   44 1
    34   19   45 1
    35   20   21 1
    36   21   26 ar
    37   21   22 ar
    38   22   23 ar
    39   22   46 1
    40   23   24 ar
    41   23   47 1
    42   24   25 ar
    43   24   48 1
    44   25   26 ar
    45   25   49 1
    46   26   27 1
    47   27   32 ar
    48   27   28 ar
    49   28   29 ar
    50   28   50 1
    51   29   30 ar
    52   29   51 1
    53   30   31 ar
    54   30   52 1
    55   31   32 ar
    56   31   53 1
    57   32   54 1
@<TRIPOS>MOLECULE
ZINC05676790
   49    52     0     0     0
SMALL
USER_CHARGES

@<TRIPOS>ATOM
      1 C1         -0.0469    1.5023    0.0142 C.3       1 <0>        -0.1156
      2 C2         -0.0189   -0.0044    0.0048 C.ar      1 <0>        -0.0954
      3 C3         -0.6052   -0.7118    1.0383 C.ar      1 <0>        -0.1029
      4 C4         -0.5812   -2.0927    1.0327 C.ar      1 <0>        -0.1136
      5 C5          0.0322   -2.7708   -0.0125 C.ar      1 <0>         0.1331
      6 C6          0.6197   -2.0575   -1.0491 C.ar      1 <0>        -0.1348
      7 C7          0.5881   -0.6767   -1.0400 C.ar      1 <0>        -0.1029
      8 N1          0.0586   -4.1697   -0.0209 N.am      1 <0>        -0.6591
      9 C8          0.1754   -4.8485    1.1376 C.2       1 <0>         0.5444
     10 O1          0.1732   -4.2513    2.1932 O.2       1 <0>        -0.4984
     11 C9          0.3087   -6.3495    1.1213 C.3       1 <0>        -0.0593
     12 H1         -0.2868   -6.7584    0.3050 H         1 <0>         0.1325
     13 C10         1.7553   -6.7232    0.9239 C.ar      1 <0>        -0.0938
     14 C11         2.7053   -6.3182    1.8428 C.ar      1 <0>        -0.0926
     15 C12         4.0322   -6.6609    1.6617 C.ar      1 <0>        -0.1211
     16 C13         4.4090   -7.4091    0.5621 C.ar      1 <0>        -0.1046
     17 C14         3.4588   -7.8149   -0.3562 C.ar      1 <0>        -0.1216
     18 C15         2.1313   -7.4758   -0.1730 C.ar      1 <0>        -0.0730
     19 S1         -0.2809   -7.0261    2.6977 S.3       1 <0>         0.0863
     20 C16        -0.2013   -8.7714    2.4689 C.2       1 <0>         0.2538
     21 N2          0.2025   -9.3904    1.3812 N.2       1 <0>        -0.5180
     22 C17         0.1303  -10.7168    1.5643 C.2       1 <0>         0.2726
     23 N3         -0.3218  -10.9551    2.7746 N.2       1 <0>        -0.2774
     24 H2         -0.8688   -9.5503    4.2812 H         1 <0>         0.4476
     25 N4         -0.5391   -9.7082    3.3828 N.pl3     1 <0>        -0.4575
     26 C18         0.5006  -11.7474    0.5632 C.ar      1 <0>        -0.0516
     27 C19         0.9754  -11.3663   -0.6901 C.ar      1 <0>        -0.0474
     28 C20         1.3189  -12.3289   -1.6175 C.ar      1 <0>        -0.1355
     29 C21         1.1926  -13.6710   -1.3060 C.ar      1 <0>        -0.0727
     30 C22         0.7219  -14.0571   -0.0648 C.ar      1 <0>        -0.1591
     31 C23         0.3803  -13.1020    0.8751 C.ar      1 <0>         0.1329
     32 F1         -0.0739  -13.4795    2.0902 F         1 <0>        -0.1206
     33 H3         -0.9459    1.8521   -0.4932 H         1 <0>         0.0711
     34 H4         -0.0487    1.8593    1.0440 H         1 <0>         0.0670
     35 H5          0.8337    1.8853   -0.5016 H         1 <0>         0.0667
     36 H6         -1.0820   -0.1838    1.8509 H         1 <0>         0.1266
     37 H7         -1.0387   -2.6446    1.8405 H         1 <0>         0.1395
     38 H8          1.0978   -2.5819   -1.8632 H         1 <0>         0.1265
     39 H9          1.0412   -0.1215   -1.8480 H         1 <0>         0.1272
     40 H10        -0.0072   -4.6510   -0.8605 H         1 <0>         0.4141
     41 H11         2.4110   -5.7336    2.7019 H         1 <0>         0.1287
     42 H12         4.7746   -6.3439    2.3792 H         1 <0>         0.1248
     43 H13         5.4458   -7.6763    0.4203 H         1 <0>         0.1234
     44 H14         3.7532   -8.3992   -1.2155 H         1 <0>         0.1255
     45 H15         1.3884   -7.7960   -0.8885 H         1 <0>         0.1253
     46 H16         1.0741  -10.3192   -0.9356 H         1 <0>         0.1424
     47 H17         1.6869  -12.0337   -2.5890 H         1 <0>         0.1367
     48 H18         1.4625  -14.4201   -2.0357 H         1 <0>         0.1378
     49 H19         0.6250  -15.1062    0.1728 H         1 <0>         0.1421
@<TRIPOS>BOND
     1    1    2 1
     2    1   33 1
     3    1   34 1
     4    1   35 1
     5    2    7 ar
     6    2    3 ar
     7    3    4 ar
     8    3   36 1
     9    4    5 ar
    10    4   37 1
    11    5    6 ar
    12    5    8 1
    13    6    7 ar
    14    6   38 1
    15    7   39 1
    16    8    9 am
    17    8   40 1
    18    9   10 2
    19    9   11 1
    20   11   12 1
    21   11   13 1
    22   11   19 1
    23   13   18 ar
    24   13   14 ar
    25   14   15 ar
    26   14   41 1
    27   15   16 ar
    28   15   42 1
    29   16   17 ar
    30   16   43 1
    31   17   18 ar
    32   17   44 1
    33   18   45 1
    34   19   20 1
    35   20   21 2
    36   20   25 1
    37   21   22 1
    38   22   26 1
    39   22   23 2
    40   23   25 1
    41   24   25 1
    42   26   31 ar
    43   26   27 ar
    44   27   28 ar
    45   27   46 1
    46   28   29 ar
    47   28   47 1
    48   29   30 ar
    49   29   48 1
    50   30   31 ar
    51   30   49 1
    52   31   32 1
@<TRIPOS>MOLECULE
ZINC59019684
   37    39     0     0     0
SMALL
USER_CHARGES

@<TRIPOS>ATOM
      1 C1         -0.0167    1.3791    0.0096 C.ar      1 <0>        -0.1101
      2 C2          1.1664    2.0886    0.0021 C.ar      1 <0>        -0.0858
      3 C3          2.3859    1.4075   -0.0132 C.ar      1 <0>        -0.0416
      4 C4          2.3984    0.0106   -0.0208 C.ar      1 <0>        -0.0710
      5 C5          1.2072   -0.6867   -0.0132 C.ar      1 <0>        -0.0394
      6 C6          0.0021   -0.0041    0.0020 C.ar      1 <0>        -0.0942
      7 Cl1         1.2195   -2.4226   -0.0227 Cl        1 <0>        -0.0611
      8 C7          3.6542    2.1596   -0.0217 C.2       1 <0>         0.1042
      9 N1          4.7858    1.5237   -0.0360 N.2       1 <0>        -0.1957
     10 N2          5.9908    2.2383   -0.0441 N.pl3     1 <0>        -0.5482
     11 C8          7.1964    1.5608   -0.0593 C.2       1 <0>         0.5602
     12 N3          7.3493    0.2533   -0.0731 N.2       1 <0>        -0.5189
     13 C9          8.6523   -0.0471   -0.0853 C.2       1 <0>         0.2278
     14 N4          9.3464    1.0661   -0.0794 N.2       1 <0>        -0.3176
     15 N5          8.4233    2.1241   -0.0684 N.pl3     1 <0>        -0.5022
     16 S1          9.3276   -1.6745   -0.1054 S.3       1 <0>         0.0467
     17 C10        11.1214   -1.4052   -0.1158 C.3       1 <0>        -0.0793
     18 C11        11.8290   -2.7356   -0.1333 C.ar      1 <0>        -0.0626
     19 C12        12.1570   -3.3595    1.0562 C.ar      1 <0>        -0.0813
     20 C13        12.8064   -4.5794    1.0415 C.ar      1 <0>        -0.0968
     21 C14        13.1282   -5.1772   -0.1640 C.ar      1 <0>        -0.0240
     22 C15        12.7994   -4.5527   -1.3550 C.ar      1 <0>        -0.0313
     23 C16        12.1447   -3.3341   -1.3384 C.ar      1 <0>        -0.0784
     24 Cl2        13.2030   -5.3013   -2.8684 Cl        1 <0>        -0.0418
     25 Cl3        13.9443   -6.7093   -0.1830 Cl        1 <0>        -0.0428
     26 H1         -0.9599    1.9049    0.0260 H         1 <0>         0.1387
     27 H2          1.1498    3.1685    0.0078 H         1 <0>         0.1357
     28 H3          3.3376   -0.5224   -0.0330 H         1 <0>         0.1482
     29 H4         -0.9273   -0.5543    0.0083 H         1 <0>         0.1370
     30 H5          3.6417    3.2396   -0.0162 H         1 <0>         0.1276
     31 H6          5.9796    3.2082   -0.0391 H         1 <0>         0.4016
     32 H7         11.3981   -0.8348   -1.0024 H         1 <0>         0.1074
     33 H8         11.4109   -0.8515    0.7774 H         1 <0>         0.1088
     34 H9         11.9059   -2.8931    1.9973 H         1 <0>         0.1447
     35 H10        13.0629   -5.0658    1.9710 H         1 <0>         0.1481
     36 H11        11.8843   -2.8483   -2.2672 H         1 <0>         0.1476
     37 H12         8.6269    3.0724   -0.0656 H         1 <0>         0.4396
@<TRIPOS>BOND
     1    1    6 ar
     2    1    2 ar
     3    1   26 1
     4    2    3 ar
     5    2   27 1
     6    3    4 ar
     7    3    8 1
     8    4    5 ar
     9    4   28 1
    10    5    6 ar
    11    5    7 1
    12    6   29 1
    13    8    9 2
    14    8   30 1
    15    9   10 1
    16   10   11 1
    17   10   31 1
    18   11   15 1
    19   11   12 2
    20   12   13 1
    21   13   14 2
    22   13   16 1
    23   14   15 1
    24   15   37 1
    25   16   17 1
    26   17   18 1
    27   17   32 1
    28   17   33 1
    29   18   23 ar
    30   18   19 ar
    31   19   20 ar
    32   19   34 1
    33   20   21 ar
    34   20   35 1
    35   21   22 ar
    36   21   25 1
    37   22   23 ar
    38   22   24 1
    39   23   36 1
@<TRIPOS>MOLECULE
ZINC04698784
   54    56     0     0     0
SMALL
USER_CHARGES
N-[4-[3-(4-fluorophenyl)prop-2-enoylaminocarbamoyl]phenyl]cyclohexanecarboxamide
@<TRIPOS>ATOM
      1 C1          2.9719  -11.1657   -0.0778 C.ar      1 <0>        -0.0693
      2 C2          3.0555  -12.5410   -0.0674 C.ar      1 <0>        -0.1558
      3 C3          4.2888  -13.1646   -0.1829 C.ar      1 <0>         0.1142
      4 C4          5.4449  -12.4098   -0.3138 C.ar      1 <0>        -0.1562
      5 C5          5.3747  -11.0338   -0.3304 C.ar      1 <0>        -0.0608
      6 C6          4.1337  -10.3984   -0.2149 C.ar      1 <0>        -0.0934
      7 C7          4.0513   -8.9297   -0.2314 C.2       1 <0>         0.0002
      8 C8          2.8532   -8.3201   -0.1198 C.2       1 <0>        -0.2110
      9 C9          2.7713   -6.8591   -0.1362 C.2       1 <0>         0.5518
     10 O1          3.7842   -6.1940   -0.2505 O.2       1 <0>        -0.5431
     11 N1          1.5742   -6.2499   -0.0247 N.am      1 <0>        -0.5163
     12 N2          1.4958   -4.8512   -0.0404 N.am      1 <0>        -0.5197
     13 C10         0.2988   -4.2421    0.0711 C.2       1 <0>         0.5658
     14 O2         -0.7131   -4.9065    0.1854 O.2       1 <0>        -0.5364
     15 C11         0.2161   -2.7685    0.0546 C.ar      1 <0>        -0.1494
     16 C12        -1.0243   -2.1353    0.1701 C.ar      1 <0>        -0.0309
     17 C13        -1.0978   -0.7607    0.1547 C.ar      1 <0>        -0.1535
     18 C14         0.0612   -0.0020    0.0249 C.ar      1 <0>         0.1784
     19 C15         1.2972   -0.6292   -0.0957 C.ar      1 <0>        -0.1286
     20 C16         1.3782   -2.0034   -0.0762 C.ar      1 <0>        -0.0631
     21 N3         -0.0168    1.3902    0.0097 N.am      1 <0>        -0.6752
     22 C17         0.9615    2.1261    0.5734 C.2       1 <0>         0.5184
     23 O3          1.9491    1.5819    1.0197 O.2       1 <0>        -0.5110
     24 C18         0.8281    3.6253    0.6493 C.3       1 <0>        -0.1040
     25 C19         0.7021    4.1982   -0.7638 C.3       1 <0>        -0.1126
     26 C20         0.5667    5.7203   -0.6868 C.3       1 <0>        -0.1182
     27 C21         1.8043    6.3087   -0.0064 C.3       1 <0>        -0.1240
     28 C22         1.9302    5.7357    1.4067 C.3       1 <0>        -0.1206
     29 C23         2.0657    4.2137    1.3297 C.3       1 <0>        -0.1009
     30 F1          4.3645  -14.5134   -0.1672 F         1 <0>        -0.1347
     31 H1          2.0113  -10.6811    0.0160 H         1 <0>         0.1397
     32 H2          2.1591  -13.1345    0.0349 H         1 <0>         0.1413
     33 H3          6.4023  -12.9015   -0.4025 H         1 <0>         0.1417
     34 H4          6.2757  -10.4471   -0.4321 H         1 <0>         0.1412
     35 H5          4.9501   -8.3396   -0.3329 H         1 <0>         0.1420
     36 H6          1.9544   -8.9102   -0.0183 H         1 <0>         0.1366
     37 H7          0.7670   -6.7800    0.0665 H         1 <0>         0.4343
     38 H8          2.3031   -4.3212   -0.1315 H         1 <0>         0.4324
     39 H9         -1.9242   -2.7237    0.2716 H         1 <0>         0.1438
     40 H10        -2.0561   -0.2707    0.2440 H         1 <0>         0.1368
     41 H11         2.1945   -0.0374   -0.2008 H         1 <0>         0.1478
     42 H12         2.3385   -2.4897   -0.1653 H         1 <0>         0.1305
     43 H13        -0.7732    1.8290   -0.4101 H         1 <0>         0.4145
     44 H14        -0.0604    3.8823    1.2260 H         1 <0>         0.1028
     45 H15         1.5906    3.9412   -1.3406 H         1 <0>         0.0709
     46 H16        -0.1796    3.7791   -1.2486 H         1 <0>         0.0666
     47 H17        -0.3218    5.9773   -0.1100 H         1 <0>         0.0658
     48 H18         0.4769    6.1285   -1.6935 H         1 <0>         0.0681
     49 H19         1.7078    7.3930    0.0485 H         1 <0>         0.0649
     50 H20         2.6927    6.0517   -0.5831 H         1 <0>         0.0638
     51 H21         1.0418    5.9927    1.9835 H         1 <0>         0.0636
     52 H22         2.8119    6.1549    1.8915 H         1 <0>         0.0680
     53 H23         2.1554    3.8055    2.3364 H         1 <0>         0.0711
     54 H24         2.9541    3.9567    0.7529 H         1 <0>         0.0717
@<TRIPOS>BOND
     1    1    6 ar
     2    1    2 ar
     3    1   31 1
     4    2    3 ar
     5    2   32 1
     6    3    4 ar
     7    3   30 1
     8    4    5 ar
     9    4   33 1
    10    5    6 ar
    11    5   34 1
    12    6    7 1
    13    7    8 2
    14    7   35 1
    15    8    9 1
    16    8   36 1
    17    9   10 2
    18    9   11 am
    19   11   12 1
    20   11   37 1
    21   12   13 am
    22   12   38 1
    23   13   14 2
    24   13   15 1
    25   15   20 ar
    26   15   16 ar
    27   16   17 ar
    28   16   39 1
    29   17   18 ar
    30   17   40 1
    31   18   19 ar
    32   18   21 1
    33   19   20 ar
    34   19   41 1
    35   20   42 1
    36   21   22 am
    37   21   43 1
    38   22   23 2
    39   22   24 1
    40   24   29 1
    41   24   25 1
    42   24   44 1
    43   25   26 1
    44   25   45 1
    45   25   46 1
    46   26   27 1
    47   26   47 1
    48   26   48 1
    49   27   28 1
    50   27   49 1
    51   27   50 1
    52   28   29 1
    53   28   51 1
    54   28   52 1
    55   29   53 1
    56   29   54 1
@<TRIPOS>MOLECULE
ZINC03545598
   56    58     0     0     0
SMALL
USER_CHARGES
2-[[4-amino-5-(4-tert-butylphenyl)-1,2,4-triazol-3-yl]sulfanyl]-N-[(1R)-1-(4-fluorophenyl)ethyl]acetamide
@<TRIPOS>ATOM
      1 C1          1.1860   -1.5463   -0.0526 C.3       1 <0>        -0.1605
      2 C2          0.5847   -1.1491    1.2970 C.3       1 <0>         0.1894
      3 H1          1.3004   -0.5617    1.8909 H         1 <0>         0.1006
      4 C3          0.1891   -2.3899    2.0553 C.ar      1 <0>        -0.1036
      5 C4         -0.9994   -3.0309    1.7592 C.ar      1 <0>        -0.0858
      6 C5         -1.3605   -4.1721    2.4501 C.ar      1 <0>        -0.1479
      7 C6         -0.5370   -4.6666    3.4473 C.ar      1 <0>         0.1013
      8 C7          0.6504   -4.0205    3.7469 C.ar      1 <0>        -0.1480
      9 C8          1.0123   -2.8830    3.0505 C.ar      1 <0>        -0.0770
     10 F1         -0.8920   -5.7784    4.1277 F         1 <0>        -0.1372
     11 N1         -0.5982   -0.3131    1.0775 N.am      1 <0>        -0.7310
     12 C9         -0.4601    1.0150    0.8942 C.2       1 <0>         0.5384
     13 O1          0.6434    1.5180    0.9109 O.2       1 <0>        -0.5269
     14 C10        -1.6763    1.8741    0.6623 C.3       1 <0>        -0.1464
     15 S1         -1.1662    3.5981    0.4530 S.3       1 <0>         0.0775
     16 C11        -2.7382    4.3544    0.2053 C.2       1 <0>         0.1160
     17 N2         -3.9027    3.7449    0.1880 N.2       1 <0>        -0.2805
     18 N3         -4.8436    4.5967   -0.0131 N.2       1 <0>        -0.2554
     19 C12        -4.3374    5.8005   -0.1462 C.2       1 <0>         0.2002
     20 N4         -2.9733    5.6822   -0.0105 N.pl3     1 <0>        -0.2066
     21 N5         -2.0473    6.6843   -0.0768 N.3       1 <0>        -0.7660
     22 C13        -5.0907    7.0479   -0.3955 C.ar      1 <0>        -0.0136
     23 C14        -6.4670    7.0930   -0.1675 C.ar      1 <0>        -0.0722
     24 C15        -7.1631    8.2617   -0.3972 C.ar      1 <0>        -0.1127
     25 C16        -6.5018    9.3843   -0.8630 C.ar      1 <0>        -0.0552
     26 C17        -5.1387    9.3446   -1.0964 C.ar      1 <0>        -0.1070
     27 C18        -4.4297    8.1839   -0.8654 C.ar      1 <0>        -0.1140
     28 C19        -7.2698   10.6556   -1.1176 C.3       1 <0>        -0.0317
     29 C20        -7.1334   11.0476   -2.5902 C.3       1 <0>        -0.1419
     30 C21        -8.7465   10.4351   -0.7832 C.3       1 <0>        -0.1494
     31 C22        -6.7093   11.7749   -0.2378 C.3       1 <0>        -0.1417
     32 H2          1.4748   -0.6406   -0.6061 H         1 <0>         0.0680
     33 H3          0.4414   -2.1097   -0.6342 H         1 <0>         0.0624
     34 H4          2.0741   -2.1741    0.1122 H         1 <0>         0.0710
     35 H5         -1.6440   -2.6421    0.9848 H         1 <0>         0.1328
     36 H6         -2.2870   -4.6750    2.2157 H         1 <0>         0.1389
     37 H7          1.2934   -4.4051    4.5248 H         1 <0>         0.1391
     38 H8          1.9385   -2.3789    3.2840 H         1 <0>         0.1364
     39 H9         -1.5990   -0.7693    1.0623 H         1 <0>         0.4237
     40 H10        -2.1983    1.5336   -0.2441 H         1 <0>         0.1300
     41 H11        -2.3520    1.7940    1.5266 H         1 <0>         0.1296
     42 H12        -2.3700    7.7203   -0.2574 H         1 <0>         0.4447
     43 H13        -0.9790    6.4552    0.0504 H         1 <0>         0.4455
     44 H14        -6.9850    6.2161    0.1918 H         1 <0>         0.1381
     45 H15        -8.2273    8.2993   -0.2170 H         1 <0>         0.1372
     46 H16        -4.6284   10.2243   -1.4600 H         1 <0>         0.1299
     47 H17        -3.3657    8.1542   -1.0480 H         1 <0>         0.1218
     48 H18        -7.6940   11.9756   -2.7760 H         1 <0>         0.0619
     49 H19        -7.5364   10.2429   -3.2227 H         1 <0>         0.0585
     50 H20        -6.0718   11.2062   -2.8306 H         1 <0>         0.0577
     51 H21        -9.3071   11.3631   -0.9691 H         1 <0>         0.0616
     52 H22        -8.8446   10.1533    0.2756 H         1 <0>         0.0610
     53 H23        -9.1495    9.6304   -1.4157 H         1 <0>         0.0613
     54 H24        -7.2699   12.7029   -0.4236 H         1 <0>         0.0618
     55 H25        -5.6477   11.9334   -0.4782 H         1 <0>         0.0577
     56 H26        -6.8074   11.4930    0.8209 H         1 <0>         0.0581
@<TRIPOS>BOND
     1    1    2 1
     2    1   32 1
     3    1   33 1
     4    1   34 1
     5    2    3 1
     6    2    4 1
     7    2   11 1
     8    4    9 ar
     9    4    5 ar
    10    5    6 ar
    11    5   35 1
    12    6    7 ar
    13    6   36 1
    14    7    8 ar
    15    7   10 1
    16    8    9 ar
    17    8   37 1
    18    9   38 1
    19   11   12 am
    20   11   39 1
    21   12   13 2
    22   12   14 1
    23   14   15 1
    24   14   40 1
    25   14   41 1
    26   15   16 1
    27   16   20 1
    28   16   17 2
    29   17   18 1
    30   18   19 2
    31   19   20 1
    32   19   22 1
    33   20   21 1
    34   21   42 1
    35   21   43 1
    36   22   27 ar
    37   22   23 ar
    38   23   24 ar
    39   23   44 1
    40   24   25 ar
    41   24   45 1
    42   25   26 ar
    43   25   28 1
    44   26   27 ar
    45   26   46 1
    46   27   47 1
    47   28   29 1
    48   28   30 1
    49   28   31 1
    50   29   48 1
    51   29   49 1
    52   29   50 1
    53   30   51 1
    54   30   52 1
    55   30   53 1
    56   31   54 1
    57   31   55 1
    58   31   56 1
@<TRIPOS>MOLECULE
ZINC36586838
   62    63     0     0     0
SMALL
USER_CHARGES

@<TRIPOS>ATOM
      1 C1          4.5625    3.2165   -3.2066 C.3       1 <0>        -0.1527
      2 C2          3.8651    2.0190   -2.5581 C.3       1 <0>        -0.1216
      3 C3          4.2246    0.7437   -3.3232 C.3       1 <0>        -0.1315
      4 C4          3.5273   -0.4538   -2.6748 C.3       1 <0>         0.1224
      5 N1          3.8715   -1.6749   -3.4074 N.am      1 <0>        -0.7304
      6 C5          3.3687   -2.8616   -3.0134 C.2       1 <0>         0.5172
      7 O1          2.6312   -2.9186   -2.0522 O.2       1 <0>        -0.5058
      8 C6          3.7228   -4.1177   -3.7670 C.3       1 <0>         0.1655
      9 H1          4.7727   -4.3581   -3.5995 H         1 <0>         0.1288
     10 C7          3.4852   -3.9037   -5.2397 C.ar      1 <0>        -0.1091
     11 C8          2.2774   -4.2677   -5.8050 C.ar      1 <0>        -0.0923
     12 C9          2.0595   -4.0715   -7.1559 C.ar      1 <0>        -0.1172
     13 C10         3.0492   -3.5108   -7.9414 C.ar      1 <0>        -0.0798
     14 C11         4.2567   -3.1460   -7.3759 C.ar      1 <0>        -0.1193
     15 C12         4.4730   -3.3383   -6.0242 C.ar      1 <0>        -0.1146
     16 C13         2.8120   -3.2978   -9.4142 C.3       1 <0>        -0.1172
     17 N2          2.8869   -5.2235   -3.2931 N.am      1 <0>        -0.5829
     18 C14         1.5551   -5.0572   -3.1708 C.2       1 <0>         0.5912
     19 O2          1.0541   -3.9728   -3.3995 O.2       1 <0>        -0.4992
     20 C15         0.7065   -6.1883   -2.7603 C.ar      1 <0>        -0.1789
     21 C16         0.4529   -6.4242   -1.4012 C.ar      1 <0>         0.1734
     22 C17        -0.3474   -7.4911   -1.0261 C.ar      1 <0>        -0.1642
     23 C18        -0.8952   -8.3216   -1.9859 C.ar      1 <0>        -0.0684
     24 C19        -0.6514   -8.0985   -3.3283 C.ar      1 <0>        -0.1611
     25 C20         0.1413   -7.0340   -3.7259 C.ar      1 <0>         0.1562
     26 O3          0.3740   -6.8136   -5.0441 O.3       1 <0>        -0.4908
     27 O4          0.9897   -5.6109   -0.4574 O.3       1 <0>        -0.4852
     28 C21         3.4988   -6.5103   -2.9521 C.3       1 <0>         0.1677
     29 C22         5.0204   -6.3974   -3.0654 C.3       1 <0>        -0.1598
     30 C23         3.1209   -6.8909   -1.5192 C.3       1 <0>        -0.1739
     31 C24         2.9940   -7.5863   -3.9156 C.3       1 <0>        -0.1821
     32 H2          5.6419    3.0677   -3.1779 H         1 <0>         0.0544
     33 H3          4.2360    3.3100   -4.2423 H         1 <0>         0.0544
     34 H4          4.3063    4.1250   -2.6615 H         1 <0>         0.0564
     35 H5          4.1916    1.9255   -1.5224 H         1 <0>         0.0650
     36 H6          2.7857    2.1678   -2.5868 H         1 <0>         0.0652
     37 H7          3.8981    0.8372   -4.3590 H         1 <0>         0.0687
     38 H8          5.3040    0.5949   -3.2946 H         1 <0>         0.0683
     39 H9          3.8538   -0.5473   -1.6390 H         1 <0>         0.0659
     40 H10         2.4479   -0.3050   -2.7035 H         1 <0>         0.0668
     41 H11         4.4614   -1.6293   -4.1761 H         1 <0>         0.3970
     42 H12         1.5041   -4.7057   -5.1913 H         1 <0>         0.1405
     43 H13         1.1161   -4.3565   -7.5977 H         1 <0>         0.1219
     44 H14         5.0301   -2.7083   -7.9896 H         1 <0>         0.1240
     45 H15         5.4151   -3.0499   -5.5817 H         1 <0>         0.1215
     46 H16         2.3798   -2.3099   -9.5735 H         1 <0>         0.0713
     47 H17         3.7590   -3.3705   -9.9490 H         1 <0>         0.0669
     48 H18         2.1257   -4.0588   -9.7855 H         1 <0>         0.0668
     49 H19        -0.5437   -7.6748    0.0199 H         1 <0>         0.1392
     50 H20        -1.5179   -9.1510   -1.6849 H         1 <0>         0.1374
     51 H21        -1.0837   -8.7539   -4.0699 H         1 <0>         0.1388
     52 H22         1.1542   -7.2702   -5.3874 H         1 <0>         0.3887
     53 H23         0.4325   -4.8550   -0.2265 H         1 <0>         0.3992
     54 H24         5.3840   -5.6582   -2.3517 H         1 <0>         0.0660
     55 H25         5.4736   -7.3649   -2.8492 H         1 <0>         0.0784
     56 H26         5.2876   -6.0888   -4.0761 H         1 <0>         0.0671
     57 H27         2.1410   -7.3683   -1.5165 H         1 <0>         0.0724
     58 H28         3.8628   -7.5820   -1.1192 H         1 <0>         0.0635
     59 H29         3.0896   -5.9936   -0.9012 H         1 <0>         0.0824
     60 H30         3.0230   -7.2031   -4.9357 H         1 <0>         0.0642
     61 H31         3.6299   -8.4684   -3.8407 H         1 <0>         0.0774
     62 H32         1.9695   -7.8539   -3.6570 H         1 <0>         0.0659
@<TRIPOS>BOND
     1    1    2 1
     2    1   32 1
     3    1   33 1
     4    1   34 1
     5    2    3 1
     6    2   35 1
     7    2   36 1
     8    3    4 1
     9    3   37 1
    10    3   38 1
    11    4    5 1
    12    4   39 1
    13    4   40 1
    14    5    6 am
    15    5   41 1
    16    6    7 2
    17    6    8 1
    18    8    9 1
    19    8   10 1
    20    8   17 1
    21   10   15 ar
    22   10   11 ar
    23   11   12 ar
    24   11   42 1
    25   12   13 ar
    26   12   43 1
    27   13   14 ar
    28   13   16 1
    29   14   15 ar
    30   14   44 1
    31   15   45 1
    32   16   46 1
    33   16   47 1
    34   16   48 1
    35   17   18 am
    36   17   28 1
    37   18   19 2
    38   18   20 1
    39   20   25 ar
    40   20   21 ar
    41   21   22 ar
    42   21   27 1
    43   22   23 ar
    44   22   49 1
    45   23   24 ar
    46   23   50 1
    47   24   25 ar
    48   24   51 1
    49   25   26 1
    50   26   52 1
    51   27   53 1
    52   28   29 1
    53   28   30 1
    54   28   31 1
    55   29   54 1
    56   29   55 1
    57   29   56 1
    58   30   57 1
    59   30   58 1
    60   30   59 1
    61   31   60 1
    62   31   61 1
    63   31   62 1
@<TRIPOS>MOLECULE
ZINC12528215
   48    49     0     0     0
SMALL
USER_CHARGES

@<TRIPOS>ATOM
      1 C1         -2.1940    0.4528    0.8793 C.3       1 <0>        -0.1708
      2 C2         -1.1270    1.4735    1.2801 C.3       1 <0>         0.1350
      3 H1         -0.4228    1.6047    0.4585 H         1 <0>         0.1129
      4 C3         -0.3910    0.9787    2.4985 C.2       1 <0>         0.5141
      5 O1         -0.4004    1.6327    3.5199 O.2       1 <0>        -0.5042
      6 N1          0.2778   -0.1906    2.4531 N.am      1 <0>        -0.6716
      7 C4          1.0404   -0.6035    3.5512 C.ar      1 <0>         0.1995
      8 C5          2.2275   -1.2962    3.3530 C.ar      1 <0>        -0.1635
      9 C6          2.9779   -1.7024    4.4391 C.ar      1 <0>         0.0025
     10 C7          2.5482   -1.4201    5.7227 C.ar      1 <0>        -0.6919
     11 C8          1.3663   -0.7309    5.9235 C.ar      1 <0>        -0.0030
     12 C9          0.6145   -0.3165    4.8415 C.ar      1 <0>        -0.1414
     13 S1          3.5084   -1.9401    7.1056 S.o2      1 <0>         2.6944
     14 O2          2.6164   -2.0315    8.2080 O.2       1 <0>        -0.9526
     15 O3          4.2910   -3.0415    6.6655 O.2       1 <0>        -0.9588
     16 N2          4.5678   -0.7160    7.4541 N.pl3     1 <0>        -1.1123
     17 C10         4.0637    0.5800    7.9149 C.3       1 <0>         0.1459
     18 C11         4.0828    0.6203    9.4442 C.3       1 <0>        -0.1754
     19 C12         4.9516    1.6977    7.3642 C.3       1 <0>        -0.1603
     20 N3         -1.7674    2.7557    1.5837 N.pl3     1 <0>        -0.7271
     21 C13        -2.0508    3.6563    0.5538 C.ar      1 <0>         0.2335
     22 C14        -1.7310    3.3349   -0.7592 C.ar      1 <0>        -0.1972
     23 C15        -2.0122    4.2271   -1.7751 C.ar      1 <0>        -0.0400
     24 C16        -2.6115    5.4403   -1.4861 C.ar      1 <0>        -0.1469
     25 C17        -2.9312    5.7631   -0.1793 C.ar      1 <0>        -0.0394
     26 C18        -2.6580    4.8723    0.8401 C.ar      1 <0>        -0.1847
     27 Br1        -2.9938    6.6597   -2.8799 Br        1 <0>        -0.0579
     28 H2         -2.8982    0.3216    1.7009 H         1 <0>         0.0701
     29 H3         -2.7263    0.8107   -0.0019 H         1 <0>         0.0810
     30 H4         -1.7175   -0.5012    0.6534 H         1 <0>         0.0720
     31 H5          0.2305   -0.7458    1.6592 H         1 <0>         0.4179
     32 H6          2.5635   -1.5173    2.3507 H         1 <0>         0.1385
     33 H7          3.9011   -2.2415    4.2856 H         1 <0>         0.1464
     34 H8          1.0332   -0.5122    6.9273 H         1 <0>         0.1449
     35 H9         -0.3059    0.2262    4.9988 H         1 <0>         0.1489
     36 H10         5.5222   -0.8571    7.3532 H         1 <0>         0.4193
     37 H11         3.0423    0.7195    7.5605 H         1 <0>         0.0827
     38 H12         3.7077    1.5846    9.7871 H         1 <0>         0.0690
     39 H13         3.4502   -0.1760    9.8366 H         1 <0>         0.0717
     40 H14         5.1041    0.4809    9.7986 H         1 <0>         0.0627
     41 H15         4.9380    1.6690    6.2747 H         1 <0>         0.0617
     42 H16         4.5765    2.6620    7.7070 H         1 <0>         0.0719
     43 H17         5.9729    1.5583    7.7186 H         1 <0>         0.0646
     44 H18        -1.9948    2.9794    2.4998 H         1 <0>         0.4125
     45 H19        -1.2626    2.3884   -0.9853 H         1 <0>         0.1290
     46 H20        -1.7638    3.9778   -2.7962 H         1 <0>         0.1322
     47 H21        -3.3986    6.7109    0.0434 H         1 <0>         0.1332
     48 H22        -2.9118    5.1230    1.8595 H         1 <0>         0.1310
@<TRIPOS>BOND
     1    1    2 1
     2    1   28 1
     3    1   29 1
     4    1   30 1
     5    2    3 1
     6    2    4 1
     7    2   20 1
     8    4    5 2
     9    4    6 am
    10    6    7 1
    11    6   31 1
    12    7   12 ar
    13    7    8 ar
    14    8    9 ar
    15    8   32 1
    16    9   10 ar
    17    9   33 1
    18   10   11 ar
    19   10   13 1
    20   11   12 ar
    21   11   34 1
    22   12   35 1
    23   13   14 2
    24   13   15 2
    25   13   16 1
    26   16   17 1
    27   16   36 1
    28   17   18 1
    29   17   19 1
    30   17   37 1
    31   18   38 1
    32   18   39 1
    33   18   40 1
    34   19   41 1
    35   19   42 1
    36   19   43 1
    37   20   21 1
    38   20   44 1
    39   21   26 ar
    40   21   22 ar
    41   22   23 ar
    42   22   45 1
    43   23   24 ar
    44   23   46 1
    45   24   25 ar
    46   24   27 1
    47   25   26 ar
    48   25   47 1
    49   26   48 1
@<TRIPOS>MOLECULE
ZINC20151673
   57    59     0     0     0
SMALL
USER_CHARGES

@<TRIPOS>ATOM
      1 C1          0.0820    2.0037   -0.1547 C.3       1 <0>        -0.1403
      2 C2         -0.2767    0.5453   -0.4465 C.3       1 <0>        -0.0354
      3 C3          0.1224   -0.3265    0.7458 C.3       1 <0>        -0.1403
      4 C4         -1.7839    0.4281   -0.6822 C.3       1 <0>        -0.1483
      5 C5          0.4615    0.0829   -1.6763 C.ar      1 <0>        -0.0368
      6 C6         -0.2473   -0.3508   -2.7826 C.ar      1 <0>        -0.1258
      7 C7          0.4221   -0.7754   -3.9116 C.ar      1 <0>        -0.0481
      8 C8          1.8180   -0.7669   -3.9362 C.ar      1 <0>        -0.1425
      9 C9          2.5270   -0.3280   -2.8164 C.ar      1 <0>        -0.0865
     10 C10         1.8449    0.0993   -1.6960 C.ar      1 <0>        -0.1210
     11 C11         2.5419   -1.2207   -5.1419 C.2       1 <0>         0.5351
     12 O1          1.9221   -1.6026   -6.1149 O.2       1 <0>        -0.4005
     13 N1          3.8894   -1.2112   -5.1623 N.am      1 <0>        -0.6393
     14 C12         4.5496   -1.6252   -6.2620 C.2       1 <0>         0.5110
     15 S1          3.6765   -2.1631   -7.6328 S.2       1 <0>        -0.4838
     16 N2          5.8972   -1.6157   -6.2825 N.pl3     1 <0>        -0.6113
     17 C13         6.5849   -2.1519   -7.3790 C.ar      1 <0>         0.0947
     18 C14         6.1885   -3.3630   -7.9204 C.ar      1 <0>        -0.0138
     19 C15         6.8763   -3.8936   -9.0126 C.ar      1 <0>        -0.0467
     20 C16         7.9608   -3.2013   -9.5545 C.ar      1 <0>        -0.0439
     21 C17         8.3516   -1.9952   -9.0105 C.ar      1 <0>        -0.1983
     22 C18         7.6653   -1.4636   -7.9291 C.ar      1 <0>         0.1387
     23 O2          8.0507   -0.2716   -7.4005 O.3       1 <0>        -0.3175
     24 C19         9.1653    0.3798   -8.0131 C.3       1 <0>         0.0259
     25 C20         6.4577   -5.1862   -9.5942 C.2       1 <0>         0.0496
     26 C21         7.0425   -5.8129  -10.6495 C.2       1 <0>        -0.1989
     27 C22         6.3242   -7.0071  -10.8614 C.2       1 <0>        -0.1804
     28 C23         5.3472   -7.0496   -9.9349 C.2       1 <0>        -0.0162
     29 O3          5.4344   -5.9506   -9.1672 O.3       1 <0>        -0.1591
     30 C24         4.3290   -8.1500   -9.7816 C.3       1 <0>         0.1567
     31 O4          4.8346   -9.1460   -8.8903 O.3       1 <0>        -0.5670
     32 H1          1.1557    2.0872    0.0132 H         1 <0>         0.0579
     33 H2         -0.2023    2.6248   -1.0041 H         1 <0>         0.0583
     34 H3         -0.4519    2.3382    0.7348 H         1 <0>         0.0625
     35 H4         -0.4115    0.0080    1.6353 H         1 <0>         0.0625
     36 H5         -0.1331   -1.3655    0.5379 H         1 <0>         0.0583
     37 H6          1.1962   -0.2430    0.9137 H         1 <0>         0.0579
     38 H7         -2.0682    1.0491   -1.5316 H         1 <0>         0.0611
     39 H8         -2.0394   -0.6110   -0.8901 H         1 <0>         0.0611
     40 H9         -2.3178    0.7625    0.2073 H         1 <0>         0.0620
     41 H10        -1.3271   -0.3573   -2.7621 H         1 <0>         0.1383
     42 H11        -0.1323   -1.1141   -4.7743 H         1 <0>         0.1406
     43 H12         3.6069   -0.3188   -2.8289 H         1 <0>         0.1214
     44 H13         2.3921    0.4432   -0.8307 H         1 <0>         0.1303
     45 H14         4.3842   -0.9064   -4.3856 H         1 <0>         0.4089
     46 H15         6.3909   -1.2376   -5.5380 H         1 <0>         0.4102
     47 H16         5.3492   -3.8958   -7.4983 H         1 <0>         0.1513
     48 H17         8.4944   -3.6103  -10.3997 H         1 <0>         0.1378
     49 H18         9.1910   -1.4614   -9.4309 H         1 <0>         0.1431
     50 H19         9.3671    1.3178   -7.4960 H         1 <0>         0.1031
     51 H20        10.0419   -0.2651   -7.9513 H         1 <0>         0.0606
     52 H21         8.9371    0.5835   -9.0593 H         1 <0>         0.0610
     53 H22         7.8928   -5.4632  -11.2162 H         1 <0>         0.1528
     54 H23         6.5199   -7.7478  -11.6227 H         1 <0>         0.1522
     55 H24         3.4050   -7.7363   -9.3777 H         1 <0>         0.0668
     56 H25         4.1309   -8.5999  -10.7544 H         1 <0>         0.0823
     57 H26         4.2302   -9.8866   -8.7444 H         1 <0>         0.3878
@<TRIPOS>BOND
     1    1    2 1
     2    1   32 1
     3    1   33 1
     4    1   34 1
     5    2    3 1
     6    2    4 1
     7    2    5 1
     8    3   35 1
     9    3   36 1
    10    3   37 1
    11    4   38 1
    12    4   39 1
    13    4   40 1
    14    5   10 ar
    15    5    6 ar
    16    6    7 ar
    17    6   41 1
    18    7    8 ar
    19    7   42 1
    20    8    9 ar
    21    8   11 1
    22    9   10 ar
    23    9   43 1
    24   10   44 1
    25   11   12 2
    26   11   13 am
    27   13   14 1
    28   13   45 1
    29   14   15 2
    30   14   16 1
    31   16   17 1
    32   16   46 1
    33   17   22 ar
    34   17   18 ar
    35   18   19 ar
    36   18   47 1
    37   19   20 ar
    38   19   25 1
    39   20   21 ar
    40   20   48 1
    41   21   22 ar
    42   21   49 1
    43   22   23 1
    44   23   24 1
    45   24   50 1
    46   24   51 1
    47   24   52 1
    48   25   29 1
    49   25   26 2
    50   26   27 1
    51   26   53 1
    52   27   28 2
    53   27   54 1
    54   28   29 1
    55   28   30 1
    56   30   31 1
    57   30   55 1
    58   30   56 1
    59   31   57 1
@<TRIPOS>MOLECULE
ZINC04391542
   68    70     0     0     0
SMALL
USER_CHARGES
ethyl 4-[[1-(3-diethylaminopropyl)-4-hydroxy-5-oxo-2-(2-thienyl)-2H-pyrrol-3-yl]carbonyl]-3,5-dimethyl-1H-pyrrole-2-carboxylate
@<TRIPOS>ATOM
      1 C1         -2.6284    6.3120   -0.3027 C.3       1 <0>        -0.1844
      2 C2         -3.0882    5.3014    0.7500 C.3       1 <0>        -0.0169
      3 C3         -5.1280    4.9289   -0.5002 C.3       1 <0>        -0.0112
      4 C4         -6.0091    5.5458    0.5879 C.3       1 <0>        -0.1885
      5 C5         -3.2082    3.4985   -0.8618 C.3       1 <0>        -0.0059
      6 C6         -2.1498    2.6629   -0.1390 C.3       1 <0>        -0.1883
      7 C7         -1.3718    1.8309   -1.1605 C.3       1 <0>         0.1448
      8 N1         -0.3583    1.0308   -0.4684 N.am      1 <0>        -0.6009
      9 C8          1.0232    1.4403   -0.1893 C.3       1 <0>         0.2720
     10 H1          1.5500    1.6417   -1.1221 H         1 <0>         0.1376
     11 C9          1.6687    0.2803    0.5320 C.2       1 <0>        -0.2116
     12 C10         0.7268   -0.6844    0.6415 C.2       1 <0>         0.0816
     13 C11        -0.5274   -0.2118    0.0189 C.2       1 <0>         0.5300
     14 O1         -1.5587   -0.8511   -0.0439 O.2       1 <0>        -0.4962
     15 O2          0.9050   -1.8911    1.2274 O.3       1 <0>        -0.4176
     16 C12         3.0509    0.2128    1.0190 C.2       1 <0>         0.5015
     17 O3          3.9692    0.0916    0.2293 O.2       1 <0>        -0.4319
     18 C13         3.3277    0.2918    2.4650 C.2       1 <0>        -0.2585
     19 C14         4.6011    0.3483    3.0743 C.2       1 <0>         0.0088
     20 C15         4.3964    0.4164    4.4213 C.2       1 <0>        -0.0534
     21 N2          3.0379    0.3935    4.6548 N.pl3     1 <0>        -0.5098
     22 H2          2.6173    0.4258    5.5282 H         1 <0>         0.4286
     23 C16         2.3893    0.3186    3.4819 C.2       1 <0>         0.1452
     24 C17         0.8937    0.2717    3.3029 C.3       1 <0>        -0.1104
     25 C18         5.4427    0.4933    5.4461 C.2       1 <0>         0.5350
     26 O4          6.6139    0.5064    5.1194 O.2       1 <0>        -0.4871
     27 O5          5.1058    0.5494    6.7509 O.3       1 <0>        -0.3658
     28 C19         6.1935    0.6241    7.7099 C.3       1 <0>         0.0653
     29 C20         5.6206    0.6800    9.1274 C.3       1 <0>        -0.1539
     30 C21         5.9331    0.3392    2.3694 C.3       1 <0>        -0.1066
     31 C22         1.0333    2.6660    0.6874 C.2       1 <0>        -0.1744
     32 C23         1.7825    3.7899    0.5747 C.2       1 <0>        -0.1142
     33 C24         1.6190    4.8004    1.5037 C.2       1 <0>        -0.1505
     34 C25         0.7220    4.6330    2.5060 C.2       1 <0>        -0.1689
     35 S1          0.0671    3.0111    2.1485 S.3       1 <0>         0.0374
     36 H3         -2.1530    5.7844   -1.1296 H         1 <0>         0.0794
     37 H4         -3.4896    6.8677   -0.6734 H         1 <0>         0.0819
     38 H5         -1.9149    7.0037    0.1451 H         1 <0>         0.1051
     39 H6         -3.6421    5.8190    1.5331 H         1 <0>         0.1300
     40 H7         -2.2186    4.8087    1.1850 H         1 <0>         0.1261
     41 H8         -4.8002    5.7086   -1.1877 H         1 <0>         0.1331
     42 H9         -5.6984    4.1783   -1.0474 H         1 <0>         0.1294
     43 H10        -6.2467    4.7889    1.3355 H         1 <0>         0.0794
     44 H11        -5.4769    6.3704    1.0622 H         1 <0>         0.0800
     45 H12        -6.9313    5.9175    0.1414 H         1 <0>         0.1062
     46 H13        -2.7214    4.1625   -1.5761 H         1 <0>         0.1355
     47 H14        -3.8948    2.8370   -1.3902 H         1 <0>         0.1338
     48 H15        -2.6366    1.9988    0.5753 H         1 <0>         0.0951
     49 H16        -1.4632    3.3243    0.3894 H         1 <0>         0.1021
     50 H17        -0.8850    2.4949   -1.8747 H         1 <0>         0.1004
     51 H18        -2.0583    1.1694   -1.6888 H         1 <0>         0.1034
     52 H19         0.0553   -2.4157    1.1752 H         1 <0>         0.4159
     53 H20         0.5709   -0.7655    3.2128 H         1 <0>         0.0935
     54 H21         0.4099    0.7291    4.1660 H         1 <0>         0.0772
     55 H22         0.6184    0.8176    2.4005 H         1 <0>         0.0878
     56 H23         6.8280   -0.2564    7.6088 H         1 <0>         0.0749
     57 H24         6.7836    1.5208    7.5209 H         1 <0>         0.0741
     58 H25         4.9861    1.5605    9.2285 H         1 <0>         0.0660
     59 H26         5.0305   -0.2168    9.3164 H         1 <0>         0.0672
     60 H27         6.4371    0.7360    9.8474 H         1 <0>         0.0851
     61 H28         6.2337    1.3631    2.1473 H         1 <0>         0.0771
     62 H29         6.6804   -0.1278    3.0109 H         1 <0>         0.0850
     63 H30         5.8486   -0.2244    1.4403 H         1 <0>         0.0848
     64 H31         2.4945    3.8956   -0.2304 H         1 <0>         0.1435
     65 H32         2.2007    5.7078    1.4346 H         1 <0>         0.1425
     66 H33         0.4688    5.3063    3.3116 H         1 <0>         0.1894
     67 N3         -3.9645    4.2796    0.1395 N.4       1 <0>        -0.3944
     68 H34        -4.2990    3.6450    0.8742 H         1 <0>         0.4285
@<TRIPOS>BOND
     1    1    2 1
     2    1   36 1
     3    1   37 1
     4    1   38 1
     5    2   39 1
     6    2   40 1
     7    2   67 1
     8    3    4 1
     9    3   41 1
    10    3   42 1
    11    3   67 1
    12    4   43 1
    13    4   44 1
    14    4   45 1
    15    5    6 1
    16    5   46 1
    17    5   47 1
    18    5   67 1
    19    6    7 1
    20    6   48 1
    21    6   49 1
    22    7    8 1
    23    7   50 1
    24    7   51 1
    25    8   13 am
    26    8    9 1
    27    9   10 1
    28    9   11 1
    29    9   31 1
    30   11   12 2
    31   11   16 1
    32   12   13 1
    33   12   15 1
    34   13   14 2
    35   15   52 1
    36   16   17 2
    37   16   18 1
    38   18   23 2
    39   18   19 1
    40   19   20 2
    41   19   30 1
    42   20   21 1
    43   20   25 1
    44   21   22 1
    45   21   23 1
    46   23   24 1
    47   24   53 1
    48   24   54 1
    49   24   55 1
    50   25   26 2
    51   25   27 1
    52   27   28 1
    53   28   29 1
    54   28   56 1
    55   28   57 1
    56   29   58 1
    57   29   59 1
    58   29   60 1
    59   30   61 1
    60   30   62 1
    61   30   63 1
    62   31   35 1
    63   31   32 2
    64   32   33 1
    65   32   64 1
    66   33   34 2
    67   33   65 1
    68   34   35 1
    69   34   66 1
    70   67   68 1
@<TRIPOS>MOLECULE
ZINC12566807
   65    67     0     0     0
SMALL
USER_CHARGES
methyl 2-[[2-dimethylaminoethyl-[(6-ethoxy-2-oxo-1H-quinolin-3-yl)methyl]carbamothioyl]amino]benzoate
@<TRIPOS>ATOM
      1 C1         -4.5388    4.9014   -2.1699 C.3       1 <0>        -0.1555
      2 C2         -3.0881    4.4961   -1.9013 C.3       1 <0>         0.0524
      3 O1         -3.0234    3.0890   -1.6605 O.3       1 <0>        -0.3091
      4 C3         -1.7965    2.5626   -1.4031 C.ar      1 <0>         0.1144
      5 C4         -0.6768    3.3912   -1.3844 C.ar      1 <0>        -0.1405
      6 C5          0.5736    2.8755   -1.1255 C.ar      1 <0>        -0.1199
      7 C6          0.7270    1.5149   -0.8800 C.ar      1 <0>         0.1407
      8 C7         -0.4015    0.6741   -0.8985 C.ar      1 <0>        -0.0977
      9 C8         -1.6665    1.2098   -1.1622 C.ar      1 <0>        -0.0869
     10 C9         -0.2257   -0.7560   -0.6380 C.2       1 <0>         0.0466
     11 C10         1.0233   -1.2206   -0.3877 C.2       1 <0>        -0.2449
     12 C11         2.1226   -0.3356   -0.3806 C.2       1 <0>         0.5457
     13 O2          3.2369   -0.7742   -0.1530 O.2       1 <0>        -0.5643
     14 N1          1.9716    0.9790   -0.6182 N.am      1 <0>        -0.6225
     15 H1          2.7482    1.5600   -0.6014 H         1 <0>         0.4166
     16 C12         1.2383   -2.6871   -0.1158 C.3       1 <0>         0.1682
     17 N2          1.2217   -2.9233    1.3300 N.pl3     1 <0>        -0.5545
     18 C13         2.4614   -2.8186    2.1036 C.3       1 <0>         0.0706
     19 C14         2.6337   -1.3812    2.5987 C.3       1 <0>        -0.0412
     20 C15         4.1990    0.1272    3.6651 C.3       1 <0>        -0.0406
     21 C16         3.7935   -2.0643    4.6114 C.3       1 <0>        -0.0536
     22 C17         0.0659   -3.2368    1.9483 C.2       1 <0>         0.5424
     23 S1         -1.3594   -3.4734    1.0300 S.2       1 <0>        -0.5681
     24 N3          0.0322   -3.3640    3.2897 N.pl3     1 <0>        -0.6188
     25 C18        -1.1786   -3.5918    3.9368 C.ar      1 <0>         0.1833
     26 C19        -2.3371   -2.9703    3.4892 C.ar      1 <0>        -0.0929
     27 C20        -3.5375   -3.2014    4.1295 C.ar      1 <0>        -0.0644
     28 C21        -3.5961   -4.0446    5.2278 C.ar      1 <0>        -0.1220
     29 C22        -2.4567   -4.6660    5.6897 C.ar      1 <0>        -0.0515
     30 C23        -1.2343   -4.4463    5.0488 C.ar      1 <0>        -0.1484
     31 C24        -0.0114   -5.1073    5.5378 C.2       1 <0>         0.5273
     32 O3          1.0613   -4.8565    5.0250 O.2       1 <0>        -0.5418
     33 O4         -0.0828   -5.9900    6.5536 O.3       1 <0>        -0.3422
     34 C25         1.1615   -6.6027    6.9831 C.3       1 <0>         0.0362
     35 H2         -4.9098    4.3658   -3.0437 H         1 <0>         0.0698
     36 H3         -5.1519    4.6525   -1.3037 H         1 <0>         0.0689
     37 H4         -4.5881    5.9747   -2.3535 H         1 <0>         0.0829
     38 H5         -2.7170    5.0317   -1.0275 H         1 <0>         0.0644
     39 H6         -2.4750    4.7451   -2.7675 H         1 <0>         0.0656
     40 H7         -0.7905    4.4483   -1.5743 H         1 <0>         0.1434
     41 H8          1.4347    3.5272   -1.1127 H         1 <0>         0.1402
     42 H9         -2.5358    0.5691   -1.1769 H         1 <0>         0.1513
     43 H10        -1.0725   -1.4263   -0.6453 H         1 <0>         0.1692
     44 H11         0.4432   -3.2645   -0.5874 H         1 <0>         0.1366
     45 H12         2.2014   -2.9948   -0.5231 H         1 <0>         0.1108
     46 H13         2.4147   -3.4940    2.9579 H         1 <0>         0.1025
     47 H14         3.3076   -3.0893    1.4722 H         1 <0>         0.1253
     48 H15         2.6804   -0.7058    1.7445 H         1 <0>         0.1496
     49 H16         1.7874   -1.1105    3.2301 H         1 <0>         0.1229
     50 H17         3.3888    0.5743    4.2411 H         1 <0>         0.1211
     51 H18         5.1236    0.1761    4.2403 H         1 <0>         0.1276
     52 H19         4.3237    0.6726    2.7297 H         1 <0>         0.1220
     53 H20         3.6235   -3.1121    4.3639 H         1 <0>         0.1232
     54 H21         4.7268   -1.9690    5.1665 H         1 <0>         0.1301
     55 H22         2.9686   -1.6966    5.2217 H         1 <0>         0.1223
     56 H23         0.8519   -3.2967    3.8040 H         1 <0>         0.4102
     57 H24        -2.2992   -2.3083    2.6367 H         1 <0>         0.1608
     58 H25        -4.4363   -2.7189    3.7749 H         1 <0>         0.1412
     59 H26        -4.5399   -4.2151    5.7244 H         1 <0>         0.1405
     60 H27        -2.5079   -5.3219    6.5463 H         1 <0>         0.1462
     61 H28         0.9631   -7.2905    7.8051 H         1 <0>         0.1105
     62 H29         1.6037   -7.1496    6.1504 H         1 <0>         0.0670
     63 H30         1.8520   -5.8278    7.3164 H         1 <0>         0.0644
     64 N4          3.8980   -1.2870    3.3585 N.4       1 <0>        -0.3900
     65 H31         4.6593   -1.6740    2.7885 H         1 <0>         0.4363
@<TRIPOS>BOND
     1    1    2 1
     2    1   35 1
     3    1   36 1
     4    1   37 1
     5    2    3 1
     6    2   38 1
     7    2   39 1
     8    3    4 1
     9    4    9 ar
    10    4    5 ar
    11    5    6 ar
    12    5   40 1
    13    6    7 ar
    14    6   41 1
    15    7   14 1
    16    7    8 ar
    17    8    9 ar
    18    8   10 1
    19    9   42 1
    20   10   11 2
    21   10   43 1
    22   11   12 1
    23   11   16 1
    24   12   13 2
    25   12   14 am
    26   14   15 1
    27   16   17 1
    28   16   44 1
    29   16   45 1
    30   17   18 1
    31   17   22 1
    32   18   19 1
    33   18   46 1
    34   18   47 1
    35   19   48 1
    36   19   49 1
    37   19   64 1
    38   20   50 1
    39   20   51 1
    40   20   52 1
    41   20   64 1
    42   21   53 1
    43   21   54 1
    44   21   55 1
    45   21   64 1
    46   22   23 2
    47   22   24 1
    48   24   25 1
    49   24   56 1
    50   25   30 ar
    51   25   26 ar
    52   26   27 ar
    53   26   57 1
    54   27   28 ar
    55   27   58 1
    56   28   29 ar
    57   28   59 1
    58   29   30 ar
    59   29   60 1
    60   30   31 1
    61   31   32 2
    62   31   33 1
    63   33   34 1
    64   34   61 1
    65   34   62 1
    66   34   63 1
    67   64   65 1
@<TRIPOS>MOLECULE
ZINC23186245
   67    70     0     0     0
SMALL
USER_CHARGES
ethyl 5-[2-[[4-(cyclopropylcarbamoyl)phenyl]methyl-(2-furylmethyl)amino]acetyl]-2,4-dimethyl-1H-pyrrole-3-carboxylate
@<TRIPOS>ATOM
      1 C1          5.3717   11.1712    7.5843 C.3       1 <0>        -0.1565
      2 C2          3.8757   10.9346    7.3673 C.3       1 <0>         0.0582
      3 O1          3.6850   10.0586    6.2251 O.3       1 <0>        -0.3500
      4 C3          2.4152    9.7486    5.8972 C.2       1 <0>         0.5412
      5 O2          1.4925   10.1981    6.5480 O.2       1 <0>        -0.4886
      6 C4          2.1457    8.8650    4.7501 C.2       1 <0>        -0.2206
      7 C5          2.0304    7.4588    4.7848 C.2       1 <0>         0.0322
      8 C6          1.7796    7.0473    3.4936 C.2       1 <0>        -0.1365
      9 N1          1.7334    8.1677    2.6892 N.pl3     1 <0>        -0.5339
     10 H1          1.5392    8.0634    1.6115 H         1 <0>         0.4502
     11 C7          1.9522    9.2590    3.4374 C.2       1 <0>         0.1798
     12 C8          1.9816   10.6787    2.9328 C.3       1 <0>        -0.1166
     13 C9          1.5953    5.7099    3.0680 C.2       1 <0>         0.4204
     14 O3          1.6586    4.8026    3.8725 O.2       1 <0>        -0.4438
     15 C10         1.3206    5.4121    1.6165 C.3       1 <0>        -0.0665
     16 N2          1.1689    3.9623    1.4343 N.4       1 <0>        -0.3929
     17 C11         1.1367    3.6115    0.0081 C.3       1 <0>         0.0390
     18 C12         2.5310    3.6846   -0.5588 C.ar      1 <0>        -0.1376
     19 C13         3.3825    2.6011   -0.4349 C.ar      1 <0>        -0.0959
     20 C14         4.6601    2.6612   -0.9520 C.ar      1 <0>        -0.0535
     21 C15         5.0930    3.8184   -1.6014 C.ar      1 <0>        -0.0916
     22 C16         4.2289    4.9078   -1.7230 C.ar      1 <0>        -0.0838
     23 C17         2.9539    4.8346   -1.2014 C.ar      1 <0>        -0.1031
     24 C18         6.4610    3.8901   -2.1576 C.2       1 <0>         0.5506
     25 O4          7.2114    2.9399   -2.0498 O.2       1 <0>        -0.5255
     26 N3          6.8759    5.0089   -2.7841 N.am      1 <0>        -0.7220
     27 C19         8.2315    5.0799   -3.3352 C.3       1 <0>        -0.0253
     28 C20         9.0229    6.3681   -3.1006 C.3       1 <0>        -0.1392
     29 C21         8.4735    6.0506   -4.4928 C.3       1 <0>        -0.1334
     30 C22        -0.0291    3.4673    2.1254 C.3       1 <0>         0.0878
     31 C23         0.0931    1.9807    2.3401 C.2       1 <0>        -0.1087
     32 C24         0.7235    1.3834    3.3673 C.2       1 <0>        -0.1299
     33 C25         0.5934   -0.0110    3.1727 C.2       1 <0>        -0.2192
     34 C26        -0.1087   -0.1823    2.0382 C.2       1 <0>         0.0138
     35 O5         -0.4141    1.0275    1.5413 O.3       1 <0>        -0.1707
     36 C27         2.1600    6.5766    5.9996 C.3       1 <0>        -0.1277
     37 H2          5.5162   11.8348    8.4496 H         1 <0>         0.0861
     38 H3          5.8028   11.6394    6.6871 H         1 <0>         0.0683
     39 H4          5.8715   10.2095    7.7722 H         1 <0>         0.0684
     40 H5          3.4446   10.4664    8.2645 H         1 <0>         0.0750
     41 H6          3.3758   11.8963    7.1794 H         1 <0>         0.0753
     42 H7          1.7958   10.6864    1.8486 H         1 <0>         0.0838
     43 H8          2.9675   11.1208    3.1390 H         1 <0>         0.1004
     44 H9          1.2029   11.2652    3.4425 H         1 <0>         0.1000
     45 H10         0.3950    5.9194    1.3069 H         1 <0>         0.1627
     46 H11         2.1593    5.7730    1.0030 H         1 <0>         0.1611
     47 H12         0.7462    2.5899   -0.1095 H         1 <0>         0.1458
     48 H13         0.4853    4.3170   -0.5284 H         1 <0>         0.1414
     49 H14         3.0448    1.7047    0.0639 H         1 <0>         0.1399
     50 H15         5.3237    1.8147   -0.8549 H         1 <0>         0.1506
     51 H16         4.5579    5.8062   -2.2241 H         1 <0>         0.1389
     52 H17         2.2843    5.6768   -1.2948 H         1 <0>         0.1388
     53 H18         6.1968    5.8687   -2.8817 H         1 <0>         0.4026
     54 H19         8.3895    4.0067   -3.1528 H         1 <0>         0.1587
     55 H20         8.5111    6.9800   -2.3432 H         1 <0>         0.1032
     56 H21        10.0343    6.1180   -2.7477 H         1 <0>         0.1127
     57 H22         9.0307    5.5380   -5.2908 H         1 <0>         0.1140
     58 H23         7.5076    6.4001   -4.8863 H         1 <0>         0.1041
     59 H24        -0.1258    3.9716    3.0982 H         1 <0>         0.1618
     60 H25        -0.9186    3.6775    1.5134 H         1 <0>         0.1432
     61 H26         1.2320    1.8746    4.1837 H         1 <0>         0.1645
     62 H27         0.9833   -0.7892    3.8120 H         1 <0>         0.1631
     63 H28        -0.3846   -1.1316    1.6035 H         1 <0>         0.2177
     64 H29         2.0198    5.5258    5.7062 H         1 <0>         0.0992
     65 H30         1.3950    6.8561    6.7390 H         1 <0>         0.0839
     66 H31         3.1598    6.7040    6.4403 H         1 <0>         0.0842
     67 H32         2.0450    3.4717    1.8834 H         1 <0>         0.4504
@<TRIPOS>BOND
     1    1    2 1
     2    1   37 1
     3    1   38 1
     4    1   39 1
     5    2    3 1
     6    2   40 1
     7    2   41 1
     8    3    4 1
     9    4    5 2
    10    4    6 1
    11    6   11 2
    12    6    7 1
    13    7    8 2
    14    7   36 1
    15    8    9 1
    16    8   13 1
    17    9   10 1
    18    9   11 1
    19   11   12 1
    20   12   42 1
    21   12   43 1
    22   12   44 1
    23   13   14 2
    24   13   15 1
    25   15   16 1
    26   15   45 1
    27   15   46 1
    28   16   17 1
    29   16   30 1
    30   16   67 1
    31   17   18 1
    32   17   47 1
    33   17   48 1
    34   18   23 ar
    35   18   19 ar
    36   19   20 ar
    37   19   49 1
    38   20   21 ar
    39   20   50 1
    40   21   22 ar
    41   21   24 1
    42   22   23 ar
    43   22   51 1
    44   23   52 1
    45   24   25 2
    46   24   26 am
    47   26   27 1
    48   26   53 1
    49   27   29 1
    50   27   28 1
    51   27   54 1
    52   28   29 1
    53   28   55 1
    54   28   56 1
    55   29   57 1
    56   29   58 1
    57   30   31 1
    58   30   59 1
    59   30   60 1
    60   31   35 1
    61   31   32 2
    62   32   33 1
    63   32   61 1
    64   33   34 2
    65   33   62 1
    66   34   35 1
    67   34   63 1
    68   36   64 1
    69   36   65 1
    70   36   66 1
@<TRIPOS>MOLECULE
ZINC36205943
   67    69     0     0     0
SMALL
USER_CHARGES

@<TRIPOS>ATOM
      1 C1          1.0102   -0.8393    1.0517 C.3       1 <0>        -0.1834
      2 C2          0.0018   -0.2390    0.0700 C.3       1 <0>         0.0090
      3 C3         -0.0082    1.2839    0.2167 C.3       1 <0>        -0.1846
      4 N1          0.3828   -0.5963   -1.3030 N.4       1 <0>        -0.3680
      5 C4          1.6690    0.0319   -1.6334 C.3       1 <0>         0.0437
      6 C5          1.4352    1.4546   -2.0720 C.2       1 <0>         0.3602
      7 N2          2.4990    2.2726   -2.2784 N.am      1 <0>        -0.6236
      8 H1          3.3960    1.9300   -2.1406 H         1 <0>         0.4262
      9 C6          2.3336    3.5494   -2.6707 C.2       1 <0>         0.5529
     10 O1          3.2993    4.2710   -2.8522 O.2       1 <0>        -0.4759
     11 C7          1.0067    4.0469   -2.8722 C.2       1 <0>        -0.2025
     12 C8          0.5726    5.3742   -3.2907 C.2       1 <0>        -0.0131
     13 C9         -0.7544    5.6167   -3.4154 C.2       1 <0>        -0.1616
     14 S1         -1.5016    4.0600   -2.9733 S.3       1 <0>         0.1965
     15 C10        -0.0297    3.1291   -2.6346 C.2       1 <0>         0.0679
     16 N3          0.2129    1.8780   -2.2523 N.2       1 <0>        -0.4868
     17 C11         1.5648    6.4389   -3.5740 C.ar      1 <0>        -0.0592
     18 C12         2.5765    6.7129   -2.6548 C.ar      1 <0>        -0.0541
     19 C13         3.4998    7.7042   -2.9194 C.ar      1 <0>        -0.1758
     20 C14         3.4236    8.4294   -4.0985 C.ar      1 <0>         0.1174
     21 C15         2.4157    8.1600   -5.0205 C.ar      1 <0>         0.0966
     22 C16         1.4910    7.1638   -4.7625 C.ar      1 <0>        -0.1521
     23 O2          2.3430    8.8726   -6.1765 O.3       1 <0>        -0.3033
     24 C17         1.2831    8.5427   -7.0765 C.3       1 <0>         0.0254
     25 O3          4.3348    9.4061   -4.3550 O.3       1 <0>        -0.3032
     26 C18         5.3416    9.6299   -3.3658 C.3       1 <0>         0.0244
     27 C19         0.5083   -2.0558   -1.4124 C.3       1 <0>        -0.0542
     28 C20        -0.8723   -2.6988   -1.2658 C.3       1 <0>         0.0917
     29 H2         -1.5748   -2.2085   -1.9398 H         1 <0>         0.1322
     30 C21        -0.7823   -4.1854   -1.6163 C.3       1 <0>         0.0339
     31 O4         -2.0903   -4.7604   -1.5926 O.3       1 <0>        -0.3682
     32 C22        -2.1184   -6.1539   -1.9077 C.3       1 <0>         0.0836
     33 C23        -1.9628   -6.9705   -0.6233 C.3       1 <0>        -0.1778
     34 C24        -3.4519   -6.4995   -2.5734 C.3       1 <0>        -0.1542
     35 O5         -1.3247   -2.5536    0.0818 O.3       1 <0>        -0.5366
     36 H3          0.9692   -1.9271    0.9949 H         1 <0>         0.0792
     37 H4          2.0136   -0.4997    0.7949 H         1 <0>         0.0759
     38 H5          0.7662   -0.5190    2.0645 H         1 <0>         0.1110
     39 H6         -0.9922   -0.6313    0.2849 H         1 <0>         0.1717
     40 H7          0.9928    1.6734    0.0308 H         1 <0>         0.0621
     41 H8         -0.7047    1.7137   -0.5032 H         1 <0>         0.1026
     42 H9         -0.3197    1.5496    1.2269 H         1 <0>         0.1003
     43 H10         2.3136    0.0239   -0.7546 H         1 <0>         0.1649
     44 H11         2.1477   -0.5230   -2.4403 H         1 <0>         0.1663
     45 H12        -1.2425    6.5335   -3.7114 H         1 <0>         0.2069
     46 H13         2.6377    6.1496   -1.7354 H         1 <0>         0.1200
     47 H14         4.2828    7.9156   -2.2062 H         1 <0>         0.1379
     48 H15         0.7108    6.9511   -5.4783 H         1 <0>         0.1365
     49 H16         1.3404    9.1841   -7.9559 H         1 <0>         0.1043
     50 H17         1.3760    7.5001   -7.3805 H         1 <0>         0.0535
     51 H18         0.3246    8.6922   -6.5794 H         1 <0>         0.0552
     52 H19         6.0014   10.4330   -3.6942 H         1 <0>         0.1046
     53 H20         4.8696    9.9097   -2.4239 H         1 <0>         0.0568
     54 H21         5.9216    8.7179   -3.2248 H         1 <0>         0.0561
     55 H22         0.9273   -2.3126   -2.3853 H         1 <0>         0.1466
     56 H23         1.1660   -2.4239   -0.6250 H         1 <0>         0.1449
     57 H24        -0.3535   -4.2987   -2.6120 H         1 <0>         0.0679
     58 H25        -0.1492   -4.6926   -0.8882 H         1 <0>         0.0630
     59 H26        -1.3006   -6.3889   -2.5890 H         1 <0>         0.0627
     60 H27        -1.9842   -8.0335   -0.8637 H         1 <0>         0.0719
     61 H28        -1.0127   -6.7243   -0.1490 H         1 <0>         0.0537
     62 H29        -2.7806   -6.7355    0.0580 H         1 <0>         0.0682
     63 H30        -3.5628   -5.9177   -3.4885 H         1 <0>         0.0630
     64 H31        -3.4734   -7.5624   -2.8138 H         1 <0>         0.0761
     65 H32        -4.2697   -6.2645   -1.8922 H         1 <0>         0.0677
     66 H33        -0.7168   -2.9141    0.7418 H         1 <0>         0.3851
     67 H34        -0.3251   -0.2706   -1.9440 H         1 <0>         0.4397
@<TRIPOS>BOND
     1    1    2 1
     2    1   36 1
     3    1   37 1
     4    1   38 1
     5    2    3 1
     6    2    4 1
     7    2   39 1
     8    3   40 1
     9    3   41 1
    10    3   42 1
    11    4    5 1
    12    4   27 1
    13    4   67 1
    14    5    6 1
    15    5   43 1
    16    5   44 1
    17    6   16 2
    18    6    7 1
    19    7    8 1
    20    7    9 am
    21    9   10 2
    22    9   11 1
    23   11   15 2
    24   11   12 1
    25   12   13 2
    26   12   17 1
    27   13   14 1
    28   13   45 1
    29   14   15 1
    30   15   16 1
    31   17   22 ar
    32   17   18 ar
    33   18   19 ar
    34   18   46 1
    35   19   20 ar
    36   19   47 1
    37   20   21 ar
    38   20   25 1
    39   21   22 ar
    40   21   23 1
    41   22   48 1
    42   23   24 1
    43   24   49 1
    44   24   50 1
    45   24   51 1
    46   25   26 1
    47   26   52 1
    48   26   53 1
    49   26   54 1
    50   27   28 1
    51   27   55 1
    52   27   56 1
    53   28   29 1
    54   28   30 1
    55   28   35 1
    56   30   31 1
    57   30   57 1
    58   30   58 1
    59   31   32 1
    60   32   33 1
    61   32   34 1
    62   32   59 1
    63   33   60 1
    64   33   61 1
    65   33   62 1
    66   34   63 1
    67   34   64 1
    68   34   65 1
    69   35   66 1
@<TRIPOS>MOLECULE
ZINC40721204
   61    64     0     0     0
SMALL
USER_CHARGES

@<TRIPOS>ATOM
      1 C1         -0.0178    1.4608    0.0101 C.3       1 <0>         0.0945
      2 N1          0.0021   -0.0041    0.0020 N.am      1 <0>        -0.5416
      3 C2         -1.1162   -0.8345    0.0027 C.ar      1 <0>         0.1014
      4 C3         -2.4814   -0.5920    0.0103 C.ar      1 <0>        -0.0971
      5 C4         -3.3677   -1.6511    0.0086 C.ar      1 <0>        -0.1000
      6 C5         -2.8989   -2.9537   -0.0002 C.ar      1 <0>        -0.1201
      7 C6         -1.5409   -3.2051   -0.0073 C.ar      1 <0>        -0.0869
      8 C7         -0.6433   -2.1482   -0.0066 C.ar      1 <0>         0.0956
      9 N2          0.7476   -2.0753   -0.0127 N.am      1 <0>        -0.5418
     10 C8          1.1043   -0.7771   -0.0131 C.2       1 <0>         0.6781
     11 O1          2.2493   -0.3649   -0.0223 O.2       1 <0>        -0.5438
     12 C9          1.6659   -3.2168   -0.0231 C.3       1 <0>         0.0976
     13 C10        -3.8745   -4.1023   -0.0014 C.3       1 <0>         0.1618
     14 H1         -3.3754   -5.0026   -0.3598 H         1 <0>         0.1220
     15 C11        -4.3890   -4.3360    1.4204 C.3       1 <0>         0.0270
     16 O2         -5.2230   -5.4962    1.4406 O.3       1 <0>        -0.2933
     17 C12        -5.7650   -5.8457    2.6368 C.ar      1 <0>         0.1747
     18 C13        -5.5043   -5.0843    3.7668 C.ar      1 <0>        -0.2119
     19 C14        -6.0569   -5.4414    4.9815 C.ar      1 <0>        -0.0457
     20 C15        -6.8689   -6.5569    5.0717 C.ar      1 <0>        -0.2153
     21 C16        -7.1299   -7.3176    3.9470 C.ar      1 <0>        -0.0481
     22 C17        -6.5847   -6.9612    2.7288 C.ar      1 <0>        -0.1499
     23 C18        -7.4700   -6.9444    6.3981 C.3       1 <0>         0.0534
     24 N3         -8.7735   -6.2858    6.5562 N.4       1 <0>        -0.5058
     25 C19        -9.3594   -6.6636    7.8492 C.3       1 <0>         0.0089
     26 C20       -10.7171   -5.9776    8.0138 C.3       1 <0>        -0.1679
     27 S1        -11.4407   -6.4441    9.6105 S.3       1 <0>         0.0873
     28 C21       -12.9787   -5.5852    9.6488 C.2       1 <0>         0.1944
     29 N4        -13.4588   -4.7997    8.7091 N.2       1 <0>        -0.3333
     30 N5        -14.6040   -4.3327    9.0550 N.2       1 <0>        -0.0234
     31 N6        -14.9356   -4.7760   10.2192 N.2       1 <0>        -0.0560
     32 N7        -13.8916   -5.6141   10.6483 N.pl3     1 <0>        -0.3520
     33 C22       -13.8080   -6.3572   11.9080 C.3       1 <0>         0.0787
     34 O3         -4.9735   -3.7928   -0.8607 O.3       1 <0>        -0.5391
     35 H2          1.0048    1.8381    0.0023 H         1 <0>         0.0978
     36 H3         -0.5450    1.8219   -0.8730 H         1 <0>         0.0776
     37 H4         -0.5280    1.8123    0.9069 H         1 <0>         0.0766
     38 H5         -2.8508    0.4229    0.0178 H         1 <0>         0.1365
     39 H6         -4.4311   -1.4624    0.0145 H         1 <0>         0.1324
     40 H7         -1.1789   -4.2226   -0.0134 H         1 <0>         0.1348
     41 H8          1.8889   -3.4943   -1.0533 H         1 <0>         0.0735
     42 H9          2.5894   -2.9448    0.4879 H         1 <0>         0.0908
     43 H10         1.2025   -4.0605    0.4883 H         1 <0>         0.0839
     44 H11        -3.5439   -4.4842    2.0928 H         1 <0>         0.0811
     45 H12        -4.9643   -3.4692    1.7457 H         1 <0>         0.0748
     46 H13        -4.8696   -4.2133    3.6970 H         1 <0>         0.1399
     47 H14        -5.8542   -4.8490    5.8614 H         1 <0>         0.1341
     48 H15        -7.7641   -8.1887    4.0201 H         1 <0>         0.1391
     49 H16        -6.7924   -7.5532    1.8497 H         1 <0>         0.1455
     50 H17        -7.6024   -8.0257    6.4350 H         1 <0>         0.1397
     51 H18        -6.8051   -6.6322    7.2035 H         1 <0>         0.1386
     52 H19        -8.6509   -5.2848    6.5221 H         1 <0>         0.4300
     53 H20        -9.4919   -7.7449    7.8860 H         1 <0>         0.1461
     54 H21        -8.6946   -6.3513    8.6545 H         1 <0>         0.1457
     55 H22       -10.5846   -4.8963    7.9770 H         1 <0>         0.1249
     56 H23       -11.3820   -6.2898    7.2085 H         1 <0>         0.1253
     57 H24       -13.3267   -5.7371   12.6644 H         1 <0>         0.1031
     58 H25       -14.8115   -6.6225   12.2406 H         1 <0>         0.1155
     59 H26       -13.2236   -7.2647   11.7565 H         1 <0>         0.1040
     60 H27        -5.4648   -3.0013   -0.6014 H         1 <0>         0.3757
     61 H28        -9.3890   -6.5748    5.8107 H         1 <0>         0.4308
@<TRIPOS>BOND
     1    1    2 1
     2    1   35 1
     3    1   36 1
     4    1   37 1
     5    2   10 am
     6    2    3 1
     7    3    8 ar
     8    3    4 ar
     9    4    5 ar
    10    4   38 1
    11    5    6 ar
    12    5   39 1
    13    6    7 ar
    14    6   13 1
    15    7    8 ar
    16    7   40 1
    17    8    9 1
    18    9   10 am
    19    9   12 1
    20   10   11 2
    21   12   41 1
    22   12   42 1
    23   12   43 1
    24   13   14 1
    25   13   15 1
    26   13   34 1
    27   15   16 1
    28   15   44 1
    29   15   45 1
    30   16   17 1
    31   17   22 ar
    32   17   18 ar
    33   18   19 ar
    34   18   46 1
    35   19   20 ar
    36   19   47 1
    37   20   21 ar
    38   20   23 1
    39   21   22 ar
    40   21   48 1
    41   22   49 1
    42   23   24 1
    43   23   50 1
    44   23   51 1
    45   24   25 1
    46   24   52 1
    47   24   61 1
    48   25   26 1
    49   25   53 1
    50   25   54 1
    51   26   27 1
    52   26   55 1
    53   26   56 1
    54   27   28 1
    55   28   32 1
    56   28   29 2
    57   29   30 1
    58   30   31 2
    59   31   32 1
    60   32   33 1
    61   33   57 1
    62   33   58 1
    63   33   59 1
    64   34   60 1
@<TRIPOS>MOLECULE
ZINC04860625
   46    48     0     0     0
SMALL
USER_CHARGES
N-(3-fluorophenyl)-2-[[4-(2-methoxyethyl)-5-(2-methyl-3-furyl)-1,2,4-triazol-3-yl]sulfanyl]acetamide
@<TRIPOS>ATOM
      1 C1         -8.5101   -2.8200   -1.4483 C.3       1 <0>        -0.0778
      2 C2         -9.2065   -1.6845   -0.7437 C.2       1 <0>         0.0627
      3 C3         -8.5991   -0.6046   -0.1821 C.2       1 <0>        -0.1396
      4 C4         -9.6822    0.2180    0.3715 C.2       1 <0>        -0.1963
      5 C5        -10.8223   -0.4379    0.0991 C.2       1 <0>        -0.0222
      6 O1        -10.5299   -1.5688   -0.5610 O.3       1 <0>        -0.1717
      7 C6         -7.1491   -0.3157   -0.1430 C.2       1 <0>         0.2718
      8 N1         -6.1953   -1.1537    0.1899 N.2       1 <0>        -0.2660
      9 N2         -5.0525   -0.5708    0.1146 N.2       1 <0>        -0.2884
     10 C7         -5.2058    0.6749   -0.2708 C.2       1 <0>         0.1411
     11 N3         -6.5461    0.8834   -0.4428 N.pl3     1 <0>        -0.4520
     12 C8         -7.2024    2.1242   -0.8623 C.3       1 <0>         0.1053
     13 C9         -7.2208    2.2001   -2.3903 C.3       1 <0>         0.0493
     14 O2         -7.8610    3.4103   -2.7994 O.3       1 <0>        -0.3841
     15 C10        -7.9313    3.5804   -4.2165 C.3       1 <0>         0.0324
     16 S1         -3.9239    1.8592   -0.5137 S.3       1 <0>         0.0905
     17 C11        -2.4811    0.8523   -0.0889 C.3       1 <0>        -0.1503
     18 C12        -1.2308    1.6819   -0.2287 C.2       1 <0>         0.5352
     19 O3         -1.3077    2.8400   -0.5809 O.2       1 <0>        -0.4988
     20 N4         -0.0272    1.1370    0.0377 N.am      1 <0>        -0.6646
     21 C13         1.1232    1.9328    0.0072 C.ar      1 <0>         0.1743
     22 C14         2.3357    1.3879   -0.3959 C.ar      1 <0>        -0.1538
     23 C15         3.4691    2.1762   -0.4304 C.ar      1 <0>        -0.0686
     24 C16         3.4011    3.5050   -0.0542 C.ar      1 <0>        -0.1674
     25 C17         2.1955    4.0508    0.3538 C.ar      1 <0>         0.1214
     26 C18         1.0560    3.2668    0.3852 C.ar      1 <0>        -0.1598
     27 F1          2.1322    5.3492    0.7218 F         1 <0>        -0.1341
     28 H1         -8.2659   -3.6000   -0.7272 H         1 <0>         0.0953
     29 H2         -9.1667   -3.2282   -2.2166 H         1 <0>         0.0826
     30 H3         -7.5938   -2.4532   -1.9109 H         1 <0>         0.0883
     31 H4         -9.5825    1.1593    0.8914 H         1 <0>         0.1552
     32 H5        -11.8148   -0.1079    0.3680 H         1 <0>         0.2117
     33 H6         -8.2251    2.1396   -0.4854 H         1 <0>         0.1132
     34 H7         -6.6551    2.9779   -0.4626 H         1 <0>         0.1099
     35 H8         -6.1981    2.1847   -2.7671 H         1 <0>         0.0626
     36 H9         -7.7681    1.3464   -2.7899 H         1 <0>         0.0581
     37 H10        -6.9233    3.5936   -4.6313 H         1 <0>         0.0467
     38 H11        -8.4934    2.7553   -4.6541 H         1 <0>         0.0444
     39 H12        -8.4306    4.5219   -4.4452 H         1 <0>         0.0939
     40 H13        -2.4256   -0.0046   -0.7603 H         1 <0>         0.1335
     41 H14        -2.5721    0.5027    0.9395 H         1 <0>         0.1346
     42 H15         0.0419    0.1923    0.2465 H         1 <0>         0.4195
     43 H16         2.3912    0.3490   -0.6858 H         1 <0>         0.1353
     44 H17         4.4108    1.7530   -0.7475 H         1 <0>         0.1400
     45 H18         4.2899    4.1181   -0.0782 H         1 <0>         0.1387
     46 H19         0.1156    3.6921    0.7030 H         1 <0>         0.1481
@<TRIPOS>BOND
     1    1    2 1
     2    1   28 1
     3    1   29 1
     4    1   30 1
     5    2    6 1
     6    2    3 2
     7    3    4 1
     8    3    7 1
     9    4    5 2
    10    4   31 1
    11    5    6 1
    12    5   32 1
    13    7   11 1
    14    7    8 2
    15    8    9 1
    16    9   10 2
    17   10   11 1
    18   10   16 1
    19   11   12 1
    20   12   13 1
    21   12   33 1
    22   12   34 1
    23   13   14 1
    24   13   35 1
    25   13   36 1
    26   14   15 1
    27   15   37 1
    28   15   38 1
    29   15   39 1
    30   16   17 1
    31   17   18 1
    32   17   40 1
    33   17   41 1
    34   18   19 2
    35   18   20 am
    36   20   21 1
    37   20   42 1
    38   21   26 ar
    39   21   22 ar
    40   22   23 ar
    41   22   43 1
    42   23   24 ar
    43   23   44 1
    44   24   25 ar
    45   24   45 1
    46   25   26 ar
    47   25   27 1
    48   26   46 1
@<TRIPOS>MOLECULE
ZINC21727546
   56    58     0     0     0
SMALL
USER_CHARGES
4-tert-butyl-N-[[5-(2-morpholinoethylsulfanyl)-1,3,4-oxadiazol-2-yl]methyl]benzamide
@<TRIPOS>ATOM
      1 C1          0.4915   -2.6993   -1.2656 C.3       1 <0>        -0.1422
      2 C2          1.2206   -2.1895   -0.0209 C.3       1 <0>        -0.0343
      3 C3          2.6673   -2.6871   -0.0374 C.3       1 <0>        -0.1484
      4 C4          0.5159   -2.7119    1.2327 C.3       1 <0>        -0.1421
      5 C5          1.2078   -0.6825   -0.0131 C.ar      1 <0>        -0.0391
      6 C6          0.0021   -0.0041    0.0020 C.ar      1 <0>        -0.1227
      7 C7         -0.0166    1.3754    0.0096 C.ar      1 <0>        -0.0533
      8 C8          1.1843    2.0865    0.0020 C.ar      1 <0>        -0.1409
      9 C9          2.3972    1.3959   -0.0129 C.ar      1 <0>        -0.0816
     10 C10         2.4019    0.0164   -0.0208 C.ar      1 <0>        -0.1289
     11 C11         1.1718    3.5649    0.0100 C.2       1 <0>         0.5695
     12 O1          0.1141    4.1637    0.0233 O.2       1 <0>        -0.5316
     13 N1          2.3332    4.2487    0.0026 N.am      1 <0>        -0.7389
     14 C12         2.3208    5.7136    0.0106 C.3       1 <0>         0.2239
     15 C13         3.7372    6.2281   -0.0002 C.2       1 <0>         0.1468
     16 N2          4.4513    6.4906   -1.0552 N.2       1 <0>        -0.2481
     17 N3          5.6115    6.9148   -0.6955 N.2       1 <0>        -0.2844
     18 C14         5.6813    6.9286    0.6140 C.2       1 <0>         0.1425
     19 O2          4.4958    6.4939    1.0814 O.3       1 <0>        -0.1997
     20 S1          7.0680    7.4241    1.5815 S.3       1 <0>         0.0813
     21 C15         8.2313    7.8578    0.2644 C.3       1 <0>        -0.1218
     22 C16         9.5484    8.3311    0.8826 C.3       1 <0>         0.0679
     23 N4         10.4925    8.6831   -0.1863 N.3       1 <0>        -0.5304
     24 C17        10.8830    7.4937   -0.9571 C.3       1 <0>         0.0095
     25 C18        11.8179    7.9136   -2.0945 C.3       1 <0>         0.0612
     26 O3         12.9475    8.5994   -1.5478 O.3       1 <0>        -0.3839
     27 C19        12.6036    9.7634   -0.7914 C.3       1 <0>         0.0611
     28 C20        11.6768    9.3622    0.3592 C.3       1 <0>         0.0171
     29 H1         -0.5486   -2.3415   -1.2536 H         1 <0>         0.0594
     30 H2          0.5008   -3.7992   -1.2712 H         1 <0>         0.0624
     31 H3          0.9981   -2.3237   -2.1669 H         1 <0>         0.0583
     32 H4          3.1914   -2.3205    0.8576 H         1 <0>         0.0602
     33 H5          3.1740   -2.3115   -0.9386 H         1 <0>         0.0604
     34 H6          2.6767   -3.7870   -0.0430 H         1 <0>         0.0620
     35 H7          1.0401   -2.3454    2.1276 H         1 <0>         0.0580
     36 H8          0.5252   -3.8118    1.2270 H         1 <0>         0.0624
     37 H9         -0.5242   -2.3540    1.2446 H         1 <0>         0.0594
     38 H10        -0.9265   -0.5556    0.0076 H         1 <0>         0.1304
     39 H11        -0.9585    1.9038    0.0169 H         1 <0>         0.1373
     40 H12         3.3299    1.9403   -0.0189 H         1 <0>         0.1225
     41 H13         3.3396   -0.5192   -0.0326 H         1 <0>         0.1343
     42 H14         3.2904    3.7068   -0.0094 H         1 <0>         0.4252
     43 H15         1.7906    6.0806   -0.8806 H         1 <0>         0.1218
     44 H16         1.8078    6.0710    0.9156 H         1 <0>         0.1063
     45 H17         8.4180    6.9753   -0.3652 H         1 <0>         0.1048
     46 H18         7.8047    8.6636   -0.3510 H         1 <0>         0.1151
     47 H19         9.3617    9.2136    1.5122 H         1 <0>         0.0926
     48 H20         9.9751    7.5253    1.4980 H         1 <0>         0.0514
     49 H21        11.4017    6.7830   -0.2969 H         1 <0>         0.0478
     50 H22         9.9845    7.0167   -1.3756 H         1 <0>         0.0907
     51 H23        12.1572    7.0201   -2.6390 H         1 <0>         0.1018
     52 H24        11.2799    8.5808   -2.7840 H         1 <0>         0.0629
     53 H25        13.5182   10.2205   -0.3858 H         1 <0>         0.1025
     54 H26        12.0906   10.4859   -1.4432 H         1 <0>         0.0627
     55 H27        11.3628   10.2610    0.9101 H         1 <0>         0.0913
     56 H28        12.2084    8.6816    1.0405 H         1 <0>         0.0476
@<TRIPOS>BOND
     1    1    2 1
     2    1   29 1
     3    1   30 1
     4    1   31 1
     5    2    3 1
     6    2    4 1
     7    2    5 1
     8    3   32 1
     9    3   33 1
    10    3   34 1
    11    4   35 1
    12    4   36 1
    13    4   37 1
    14    5   10 ar
    15    5    6 ar
    16    6    7 ar
    17    6   38 1
    18    7    8 ar
    19    7   39 1
    20    8    9 ar
    21    8   11 1
    22    9   10 ar
    23    9   40 1
    24   10   41 1
    25   11   12 2
    26   11   13 am
    27   13   14 1
    28   13   42 1
    29   14   15 1
    30   14   43 1
    31   14   44 1
    32   15   19 1
    33   15   16 2
    34   16   17 1
    35   17   18 2
    36   18   19 1
    37   18   20 1
    38   20   21 1
    39   21   22 1
    40   21   45 1
    41   21   46 1
    42   22   23 1
    43   22   47 1
    44   22   48 1
    45   23   28 1
    46   23   24 1
    47   24   25 1
    48   24   49 1
    49   24   50 1
    50   25   26 1
    51   25   51 1
    52   25   52 1
    53   26   27 1
    54   27   28 1
    55   27   53 1
    56   27   54 1
    57   28   55 1
    58   28   56 1
@<TRIPOS>MOLECULE
ZINC16855886
   48    49     0     0     0
SMALL
USER_CHARGES

@<TRIPOS>ATOM
      1 C1         -0.0184    1.5028    0.0103 C.3       1 <0>        -0.1143
      2 C2          0.0021   -0.0041    0.0020 C.2       1 <0>         0.4015
      3 N1          0.0051   -0.6323   -1.1399 N.2       1 <0>        -0.5309
      4 C3          0.0232   -1.9782   -1.1975 C.2       1 <0>         0.2051
      5 C4          0.0388   -2.7135   -0.0181 C.2       1 <0>        -0.2351
      6 C5          0.0352   -2.0188    1.2024 C.2       1 <0>         0.5243
      7 N2          0.0223   -0.6697    1.1813 N.am      1 <0>        -0.6320
      8 O1          0.0481   -2.6239    2.2622 O.2       1 <0>        -0.5275
      9 C6          0.0586   -4.2200   -0.0484 C.3       1 <0>        -0.0330
     10 C7          1.5029   -4.7134    0.0599 C.3       1 <0>        -0.4508
     11 S1          1.5267   -6.5268    0.0235 S.o       1 <0>         1.2458
     12 O2          0.8310   -7.0325    1.1547 O.2       1 <0>        -0.8288
     13 C8          3.2866   -6.9454    0.1593 C.3       1 <0>        -0.4136
     14 C9          3.4495   -8.4434    0.1411 C.2       1 <0>        -0.1098
     15 C10         3.9010   -9.0401   -0.9342 C.2       1 <0>        -0.1835
     16 C11         3.0931   -9.2551    1.3598 C.3       1 <0>        -0.1284
     17 C12         0.0258   -2.6636   -2.4974 C.2       1 <0>        -0.1059
     18 C13         0.0101   -1.9468   -3.6360 C.2       1 <0>        -0.0633
     19 C14         0.0127   -2.6338   -4.9388 C.ar      1 <0>        -0.0128
     20 C15         0.0256   -4.0305   -4.9965 C.ar      1 <0>        -0.1125
     21 C16         0.0281   -4.6666   -6.2200 C.ar      1 <0>        -0.0505
     22 C17         0.0177   -3.9258   -7.3890 C.ar      1 <0>        -0.0485
     23 C18         0.0054   -2.5428   -7.3400 C.ar      1 <0>        -0.0529
     24 C19        -0.0035   -1.8925   -6.1239 C.ar      1 <0>        -0.1009
     25 N3          0.0204   -4.6162   -8.6983 N.pl3     1 <0>         0.0313
     26 O3          0.0316   -5.8243   -8.7446 O.2       1 <0>        -0.1551
     27 O4          0.0114   -3.9721   -9.7214 O.3       1 <0>        -0.1579
     28 H1          1.0042    1.8801    0.0026 H         1 <0>         0.1031
     29 H2         -0.5455    1.8639   -0.8728 H         1 <0>         0.1081
     30 H3         -0.5286    1.8543    0.9071 H         1 <0>         0.0903
     31 H4         -0.5215   -4.6079    0.7889 H         1 <0>         0.0875
     32 H5         -0.3757   -4.5704   -0.9847 H         1 <0>         0.0865
     33 H6          2.0830   -4.3255   -0.7774 H         1 <0>         0.1155
     34 H7          1.9372   -4.3630    0.9962 H         1 <0>         0.0893
     35 H8          3.8293   -6.5106   -0.6800 H         1 <0>         0.1221
     36 H9          3.6835   -6.5481    1.0936 H         1 <0>         0.0939
     37 H10         4.0178  -10.1137   -0.9473 H         1 <0>         0.1045
     38 H11         4.1565   -8.4584   -1.8076 H         1 <0>         0.1045
     39 H12         2.7385   -8.5907    2.1478 H         1 <0>         0.0641
     40 H13         2.3086   -9.9677    1.1050 H         1 <0>         0.0722
     41 H14         3.9743   -9.7939    1.7079 H         1 <0>         0.0687
     42 H15         0.0402   -3.7427   -2.5388 H         1 <0>         0.1435
     43 H16        -0.0044   -0.8677   -3.5946 H         1 <0>         0.1471
     44 H17         0.0341   -4.6099   -4.0851 H         1 <0>         0.1525
     45 H18         0.0384   -5.7455   -6.2662 H         1 <0>         0.1584
     46 H19        -0.0019   -1.9714   -8.2564 H         1 <0>         0.1564
     47 H20        -0.0180   -0.8132   -6.0872 H         1 <0>         0.1521
     48 H21         0.0238   -0.1740    2.0151 H         1 <0>         0.4199
@<TRIPOS>BOND
     1    1    2 1
     2    1   28 1
     3    1   29 1
     4    1   30 1
     5    2    7 1
     6    2    3 2
     7    3    4 1
     8    4    5 2
     9    4   17 1
    10    5    6 1
    11    5    9 1
    12    6    7 am
    13    6    8 2
    14    7   48 1
    15    9   10 1
    16    9   31 1
    17    9   32 1
    18   10   11 1
    19   10   33 1
    20   10   34 1
    21   11   12 2
    22   11   13 1
    23   13   14 1
    24   13   35 1
    25   13   36 1
    26   14   15 2
    27   14   16 1
    28   15   37 1
    29   15   38 1
    30   16   39 1
    31   16   40 1
    32   16   41 1
    33   17   18 2
    34   17   42 1
    35   18   19 1
    36   18   43 1
    37   19   24 ar
    38   19   20 ar
    39   20   21 ar
    40   20   44 1
    41   21   22 ar
    42   21   45 1
    43   22   23 ar
    44   22   25 1
    45   23   24 ar
    46   23   46 1
    47   24   47 1
    48   25   26 2
    49   25   27 1
@<TRIPOS>MOLECULE
ZINC55300446
   57    58     0     0     0
SMALL
USER_CHARGES

@<TRIPOS>ATOM
      1 C1         -0.0184    1.5028    0.0103 C.3       1 <0>        -0.1469
      2 C2          0.0021   -0.0041    0.0020 C.ar      1 <0>         0.0634
      3 C3          0.0057   -0.6876   -1.1985 C.ar      1 <0>        -0.1845
      4 C4          0.0245   -2.0748   -1.2054 C.ar      1 <0>         0.1928
      5 C5          0.0396   -2.7720   -0.0061 C.ar      1 <0>        -0.2418
      6 C6          0.0359   -2.0838    1.1917 C.ar      1 <0>         0.0651
      7 C7          0.0229   -0.7012    1.1959 C.ar      1 <0>        -0.7244
      8 S1          0.0260    0.1738    2.7253 S.o2      1 <0>         2.6921
      9 O1          0.5979   -0.6981    3.6908 O.2       1 <0>        -0.9536
     10 O2          0.5572    1.4636    2.4542 O.2       1 <0>        -0.9508
     11 N1         -1.5548    0.3959    3.1656 N.pl3     1 <0>        -0.9996
     12 C8         -2.2919    1.5906    2.7318 C.3       1 <0>         0.1139
     13 C9         -2.8918    2.2744    3.9645 C.3       1 <0>        -0.1122
     14 C10        -3.7361    1.2633    4.7435 C.3       1 <0>        -0.1053
     15 C11        -2.8475    0.1101    5.2154 C.3       1 <0>        -0.1239
     16 C12        -2.2488   -0.6009    3.9923 C.3       1 <0>         0.1159
     17 C13        -4.3555    1.9413    5.9384 C.2       1 <0>         0.5176
     18 O3         -4.1426    3.1170    6.1464 O.2       1 <0>        -0.5335
     19 N2         -5.1459    1.2411    6.7759 N.am      1 <0>        -0.7311
     20 C14        -5.7480    1.9002    7.9375 C.3       1 <0>         0.1209
     21 C15        -6.5922    0.8896    8.7166 C.3       1 <0>        -0.1313
     22 C16        -7.2210    1.5779    9.9297 C.3       1 <0>         0.0633
     23 O4         -8.0094    0.6340   10.6573 O.3       1 <0>        -0.3929
     24 C17        -8.6445    1.1779   11.8162 C.3       1 <0>         0.0312
     25 C18         0.0524   -2.8405    2.4948 C.3       1 <0>        -0.1468
     26 O5          0.0277   -2.7496   -2.3851 O.3       1 <0>        -0.3103
     27 C19         0.0474   -4.1768   -2.3160 C.3       1 <0>         0.0225
     28 H1          1.0042    1.8801    0.0026 H         1 <0>         0.0975
     29 H2         -0.5455    1.8639   -0.8728 H         1 <0>         0.0776
     30 H3         -0.5286    1.8543    0.9071 H         1 <0>         0.0883
     31 H4         -0.0064   -0.1426   -2.1308 H         1 <0>         0.1405
     32 H5          0.0540   -3.8519   -0.0089 H         1 <0>         0.1376
     33 H6         -1.6113    2.2770    2.2281 H         1 <0>         0.1004
     34 H7         -3.0912    1.2994    2.0503 H         1 <0>         0.0745
     35 H8         -2.0889    2.6454    4.6015 H         1 <0>         0.0793
     36 H9         -3.5206    3.1069    3.6488 H         1 <0>         0.0871
     37 H10        -4.5238    0.8743    4.0983 H         1 <0>         0.1025
     38 H11        -2.0450    0.5016    5.8407 H         1 <0>         0.0788
     39 H12        -3.4447   -0.5978    5.7901 H         1 <0>         0.0821
     40 H13        -3.0446   -1.0672    3.4115 H         1 <0>         0.0761
     41 H14        -1.5398   -1.3609    4.3205 H         1 <0>         0.0999
     42 H15        -5.3161    0.3007    6.6096 H         1 <0>         0.4019
     43 H16        -4.9606    2.2899    8.5827 H         1 <0>         0.0707
     44 H17        -6.3819    2.7208    7.6016 H         1 <0>         0.0705
     45 H18        -7.3795    0.4998    8.0714 H         1 <0>         0.0788
     46 H19        -5.9582    0.0690    9.0525 H         1 <0>         0.0792
     47 H20        -6.4336    1.9676   10.5749 H         1 <0>         0.0536
     48 H21        -7.8549    2.3985    9.5938 H         1 <0>         0.0534
     49 H22        -7.8867    1.5593   12.5005 H         1 <0>         0.0430
     50 H23        -9.3080    1.9902   11.5194 H         1 <0>         0.0429
     51 H24        -9.2233    0.3990   12.3126 H         1 <0>         0.0881
     52 H25         1.0839   -3.0090    2.8042 H         1 <0>         0.0967
     53 H26        -0.4658   -2.2604    3.2584 H         1 <0>         0.0874
     54 H27        -0.4491   -3.7995    2.3645 H         1 <0>         0.0748
     55 H28         0.9446   -4.5027   -1.7898 H         1 <0>         0.0606
     56 H29        -0.8352   -4.5269   -1.7807 H         1 <0>         0.0603
     57 H30         0.0479   -4.5893   -3.3249 H         1 <0>         0.1060
@<TRIPOS>BOND
     1    1    2 1
     2    1   28 1
     3    1   29 1
     4    1   30 1
     5    2    7 ar
     6    2    3 ar
     7    3    4 ar
     8    3   31 1
     9    4    5 ar
    10    4   26 1
    11    5    6 ar
    12    5   32 1
    13    6    7 ar
    14    6   25 1
    15    7    8 1
    16    8    9 2
    17    8   10 2
    18    8   11 1
    19   11   16 1
    20   11   12 1
    21   12   13 1
    22   12   33 1
    23   12   34 1
    24   13   14 1
    25   13   35 1
    26   13   36 1
    27   14   15 1
    28   14   17 1
    29   14   37 1
    30   15   16 1
    31   15   38 1
    32   15   39 1
    33   16   40 1
    34   16   41 1
    35   17   18 2
    36   17   19 am
    37   19   20 1
    38   19   42 1
    39   20   21 1
    40   20   43 1
    41   20   44 1
    42   21   22 1
    43   21   45 1
    44   21   46 1
    45   22   23 1
    46   22   47 1
    47   22   48 1
    48   23   24 1
    49   24   49 1
    50   24   50 1
    51   24   51 1
    52   25   52 1
    53   25   53 1
    54   25   54 1
    55   26   27 1
    56   27   55 1
    57   27   56 1
    58   27   57 1
@<TRIPOS>MOLECULE
ZINC65169537
   55    57     0     0     0
SMALL
USER_CHARGES

@<TRIPOS>ATOM
      1 C1         -0.3120    0.4714    0.7818 C.3       1 <0>        -0.0802
      2 C2         -0.1389   -0.3820   -0.4482 C.2       1 <0>         0.0603
      3 C3         -1.1192   -0.7125   -1.3316 C.2       1 <0>        -0.1348
      4 C4         -0.4712   -1.5476   -2.3509 C.2       1 <0>        -0.1967
      5 C5          0.8192   -1.6393   -1.9896 C.2       1 <0>        -0.0241
      6 O1          1.0087   -0.9396   -0.8607 O.3       1 <0>        -0.1719
      7 C6         -2.5424   -0.3138   -1.2765 C.2       1 <0>         0.2662
      8 N1         -3.0063    0.8945   -1.0585 N.2       1 <0>        -0.2711
      9 N2         -4.2911    0.8819   -1.0779 N.2       1 <0>        -0.2933
     10 C7         -4.7270   -0.3347   -1.3095 C.2       1 <0>         0.1559
     11 N3         -3.6296   -1.1380   -1.4500 N.pl3     1 <0>        -0.4506
     12 C8         -3.6148   -2.5769   -1.7250 C.3       1 <0>         0.1355
     13 C9         -3.5021   -3.3352   -0.4276 C.2       1 <0>        -0.1877
     14 C10        -4.3900   -4.2492   -0.1239 C.2       1 <0>        -0.1467
     15 S1         -6.4119   -0.8373   -1.4242 S.3       1 <0>         0.0252
     16 C11        -7.3460    0.6938   -1.1524 C.3       1 <0>        -0.1417
     17 C12        -8.8451    0.3967   -1.2267 C.3       1 <0>         0.1332
     18 C13        -9.6329    1.6881   -0.9975 C.3       1 <0>         0.0280
     19 N4        -11.0723    1.4015   -1.0618 N.3       1 <0>        -0.5218
     20 C14       -11.8436    2.6294   -1.3035 C.3       1 <0>         0.0243
     21 C15       -13.3289    2.2775   -1.4226 C.3       1 <0>         0.0868
     22 O2        -13.7494    1.5987   -0.2362 O.3       1 <0>        -0.3772
     23 C16       -13.0195    0.3979    0.0295 C.3       1 <0>         0.0906
     24 C17       -11.5312    0.7307    0.1633 C.3       1 <0>         0.0209
     25 C18       -13.2209   -0.5880   -1.1231 C.3       1 <0>        -0.1744
     26 C19       -14.1456    3.5599   -1.5943 C.3       1 <0>        -0.1463
     27 O3         -9.1625   -0.1325   -2.5156 O.3       1 <0>        -0.5366
     28 H1          0.6454    0.5695    1.2936 H         1 <0>         0.0824
     29 H2         -0.6716    1.4585    0.4915 H         1 <0>         0.0996
     30 H3         -1.0349    0.0033    1.4500 H         1 <0>         0.0860
     31 H4         -0.9375   -1.9967   -3.2154 H         1 <0>         0.1534
     32 H5          1.5823   -2.1858   -2.5239 H         1 <0>         0.2108
     33 H6         -4.5375   -2.8594   -2.2320 H         1 <0>         0.1040
     34 H7         -2.7628   -2.8165   -2.3612 H         1 <0>         0.1068
     35 H8         -2.6893   -3.1250    0.2518 H         1 <0>         0.1161
     36 H9         -5.2028   -4.4594   -0.8033 H         1 <0>         0.1048
     37 H10        -4.3092   -4.7926    0.8060 H         1 <0>         0.1094
     38 H11        -7.1039    1.0975   -0.1693 H         1 <0>         0.1047
     39 H12        -7.0815    1.4218   -1.9193 H         1 <0>         0.0998
     40 H13        -9.1096   -0.3313   -0.4598 H         1 <0>         0.1076
     41 H14        -9.3869    2.0945   -0.0165 H         1 <0>         0.0514
     42 H15        -9.3723    2.4142   -1.7674 H         1 <0>         0.0837
     43 H16       -11.6987    3.3198   -0.4726 H         1 <0>         0.0429
     44 H17       -11.5048    3.0959   -2.2285 H         1 <0>         0.0857
     45 H18       -13.4814    1.6298   -2.2860 H         1 <0>         0.0716
     46 H19       -13.3776   -0.0480    0.9574 H         1 <0>         0.1049
     47 H20       -10.9642   -0.1888    0.3090 H         1 <0>         0.0868
     48 H21       -11.3812    1.3908    1.0177 H         1 <0>         0.0431
     49 H22       -12.8607   -0.1418   -2.0500 H         1 <0>         0.0731
     50 H23       -12.6644   -1.5030   -0.9200 H         1 <0>         0.0647
     51 H24       -14.2812   -0.8216   -1.2203 H         1 <0>         0.0570
     52 H25       -13.8220    4.0787   -2.4966 H         1 <0>         0.0724
     53 H26       -15.2028    3.3087   -1.6790 H         1 <0>         0.0673
     54 H27       -13.9938    4.2058   -0.7295 H         1 <0>         0.0621
     55 H28        -8.9531    0.4633   -3.2479 H         1 <0>         0.3758
@<TRIPOS>BOND
     1    1    2 1
     2    1   28 1
     3    1   29 1
     4    1   30 1
     5    2    6 1
     6    2    3 2
     7    3    4 1
     8    3    7 1
     9    4    5 2
    10    4   31 1
    11    5    6 1
    12    5   32 1
    13    7   11 1
    14    7    8 2
    15    8    9 1
    16    9   10 2
    17   10   11 1
    18   10   15 1
    19   11   12 1
    20   12   13 1
    21   12   33 1
    22   12   34 1
    23   13   14 2
    24   13   35 1
    25   14   36 1
    26   14   37 1
    27   15   16 1
    28   16   17 1
    29   16   38 1
    30   16   39 1
    31   17   18 1
    32   17   27 1
    33   17   40 1
    34   18   19 1
    35   18   41 1
    36   18   42 1
    37   19   24 1
    38   19   20 1
    39   20   21 1
    40   20   43 1
    41   20   44 1
    42   21   22 1
    43   21   26 1
    44   21   45 1
    45   22   23 1
    46   23   24 1
    47   23   25 1
    48   23   46 1
    49   24   47 1
    50   24   48 1
    51   25   49 1
    52   25   50 1
    53   25   51 1
    54   26   52 1
    55   26   53 1
    56   26   54 1
    57   27   55 1
@<TRIPOS>MOLECULE
ZINC08635763
   66    70     0     0     0
SMALL
USER_CHARGES
methyl 1-[6-[[4-(3-aminophenyl)triazol-1-yl]methyl]quinuclidin-3-yl]carbonylpiperidine-4-carboxylate
@<TRIPOS>ATOM
      1 C1         -6.2432    4.3099    3.3158 C.3       1 <0>         0.0336
      2 O1         -5.6636    3.2261    2.5427 O.3       1 <0>        -0.3575
      3 C2         -4.8278    2.3968    3.1874 C.2       1 <0>         0.4587
      4 O2         -4.5886    2.5708    4.3589 O.2       1 <0>        -0.4963
      5 C3         -4.1880    1.2487    2.4501 C.3       1 <0>        -0.0817
      6 C4         -3.2879    0.4656    3.4085 C.3       1 <0>        -0.1210
      7 C5         -2.6664   -0.7206    2.6645 C.3       1 <0>         0.1087
      8 N1         -1.9803   -0.2200    1.4657 N.am      1 <0>        -0.6081
      9 C6         -2.7283    0.6248    0.5246 C.3       1 <0>         0.0944
     10 C7         -3.3506    1.7914    1.2897 C.3       1 <0>        -0.1300
     11 C8         -0.6877   -0.5253    1.2363 C.2       1 <0>         0.5114
     12 O3         -0.0798   -1.2194    2.0234 O.2       1 <0>        -0.5089
     13 C9          0.0021   -0.0041    0.0020 C.3       1 <0>        -0.1235
     14 H1         -0.5119   -0.3714   -0.8862 H         1 <0>         0.1398
     15 C10        -0.0187    1.5272    0.0104 C.3       1 <0>        -0.0110
     16 C11         2.0662    1.6172   -1.2199 C.3       1 <0>        -0.0013
     17 C12         2.1458    0.0886   -1.2637 C.3       1 <0>        -0.1360
     18 C13         1.4604   -0.4792   -0.0145 C.3       1 <0>        -0.0765
     19 H2          1.4997   -1.5685   -0.0136 H         1 <0>         0.1311
     20 C14         2.1696    0.0752    1.2274 C.3       1 <0>        -0.1401
     21 C15         2.0894    1.6042    1.2016 C.3       1 <0>         0.0216
     22 H3          3.0964    2.0210    1.1843 H         1 <0>         0.1574
     23 C16         1.3539    2.0979    2.4490 C.3       1 <0>         0.0978
     24 N2          1.3814    3.5623    2.4845 N.pl3     1 <0>        -0.3230
     25 C17         0.3013    4.3707    2.5733 C.2       1 <0>        -0.0499
     26 C18         0.7848    5.6471    2.5787 C.2       1 <0>         0.0519
     27 N3          2.1224    5.5417    2.4844 N.2       1 <0>        -0.2321
     28 N4          2.4369    4.2958    2.4310 N.2       1 <0>        -0.0786
     29 C19        -0.0068    6.8999    2.6650 C.ar      1 <0>         0.0185
     30 C20        -1.3966    6.8434    2.7535 C.ar      1 <0>        -0.1615
     31 C21        -2.1314    8.0091    2.8391 C.ar      1 <0>        -0.0669
     32 C22        -1.4937    9.2352    2.8267 C.ar      1 <0>        -0.1833
     33 C23        -0.1088    9.3011    2.7329 C.ar      1 <0>         0.2219
     34 C24         0.6366    8.1339    2.6519 C.ar      1 <0>        -0.1658
     35 N5          0.5324   10.5421    2.7197 N.pl3     1 <0>        -0.8741
     36 H4         -6.8203    3.8977    4.1435 H         1 <0>         0.0669
     37 H5         -5.4470    4.9429    3.7077 H         1 <0>         0.0656
     38 H6         -6.8973    4.9028    2.6765 H         1 <0>         0.1069
     39 H7         -4.9640    0.5898    2.0605 H         1 <0>         0.1192
     40 H8         -3.8806    0.0992    4.2467 H         1 <0>         0.0967
     41 H9         -2.4968    1.1175    3.7791 H         1 <0>         0.0757
     42 H10        -3.4500   -1.4196    2.3720 H         1 <0>         0.0839
     43 H11        -1.9489   -1.2233    3.3130 H         1 <0>         0.1072
     44 H12        -2.0515    1.0096   -0.2384 H         1 <0>         0.0856
     45 H13        -3.5170    0.0378    0.0540 H         1 <0>         0.0939
     46 H14        -3.9879    2.3687    0.6199 H         1 <0>         0.1040
     47 H15        -2.5593    2.4313    1.6802 H         1 <0>         0.0667
     48 H16        -0.5453    1.8886   -0.8728 H         1 <0>         0.1485
     49 H17        -0.5283    1.8790    0.9074 H         1 <0>         0.1246
     50 H18         1.5250    1.9785   -2.0943 H         1 <0>         0.1340
     51 H19         3.0733    2.0343   -1.2175 H         1 <0>         0.1343
     52 H20         3.1904   -0.2223   -1.2804 H         1 <0>         0.1103
     53 H21         1.6394   -0.2779   -2.1567 H         1 <0>         0.1062
     54 H22         1.6804   -0.3010    2.1259 H         1 <0>         0.1293
     55 H23         3.2143   -0.2358    1.2208 H         1 <0>         0.1148
     56 H24         0.3197    1.7545    2.4208 H         1 <0>         0.1208
     57 H25         1.8435    1.7036    3.3394 H         1 <0>         0.1473
     58 H26        -0.7338    4.0680    2.6310 H         1 <0>         0.1955
     59 H27        -1.8987    5.8873    2.7590 H         1 <0>         0.1152
     60 H28        -3.2079    7.9628    2.9114 H         1 <0>         0.1278
     61 H29        -2.0733   10.1444    2.8896 H         1 <0>         0.1261
     62 H30         1.7130    8.1827    2.5793 H         1 <0>         0.1303
     63 H31         1.4991   10.5878    2.6539 H         1 <0>         0.4018
     64 H32         0.0109   11.3580    2.7763 H         1 <0>         0.4027
     65 N6          1.3598    2.0625    0.0000 N.4       1 <0>        -0.3919
     66 H33         1.3189    3.0884    0.0059 H         1 <0>         0.4303
@<TRIPOS>BOND
     1    1    2 1
     2    1   36 1
     3    1   37 1
     4    1   38 1
     5    2    3 1
     6    3    4 2
     7    3    5 1
     8    5   10 1
     9    5    6 1
    10    5   39 1
    11    6    7 1
    12    6   40 1
    13    6   41 1
    14    7    8 1
    15    7   42 1
    16    7   43 1
    17    8    9 1
    18    8   11 am
    19    9   10 1
    20    9   44 1
    21    9   45 1
    22   10   46 1
    23   10   47 1
    24   11   12 2
    25   11   13 1
    26   13   14 1
    27   13   18 1
    28   13   15 1
    29   15   48 1
    30   15   49 1
    31   15   65 1
    32   16   17 1
    33   16   50 1
    34   16   51 1
    35   16   65 1
    36   17   18 1
    37   17   52 1
    38   17   53 1
    39   18   19 1
    40   18   20 1
    41   20   21 1
    42   20   54 1
    43   20   55 1
    44   21   22 1
    45   21   23 1
    46   21   65 1
    47   23   24 1
    48   23   56 1
    49   23   57 1
    50   24   28 1
    51   24   25 1
    52   25   26 2
    53   25   58 1
    54   26   27 1
    55   26   29 1
    56   27   28 2
    57   29   34 ar
    58   29   30 ar
    59   30   31 ar
    60   30   59 1
    61   31   32 ar
    62   31   60 1
    63   32   33 ar
    64   32   61 1
    65   33   34 ar
    66   33   35 1
    67   34   62 1
    68   35   63 1
    69   35   64 1
    70   65   66 1
@<TRIPOS>MOLECULE
ZINC31174358
   62    65     0     0     0
SMALL
USER_CHARGES
2-[[(3S)-2,3-dihydro-1,4-benzodioxin-3-yl]methyl-ethyl-amino]-N-(8-methyl-1,3-dioxo-2,4-diazaspiro[4.5]decan-2-yl)acetamide
@<TRIPOS>ATOM
      1 C1          1.4526    8.2309   -1.0323 C.3       1 <0>        -0.1858
      2 C2          1.2270    7.6880    0.3803 C.3       1 <0>        -0.0230
      3 N1         -0.1386    8.0094    0.8161 N.4       1 <0>        -0.3857
      4 C3         -1.1335    7.3539   -0.0433 C.3       1 <0>        -0.0024
      5 C4         -1.2351    5.8740    0.3314 C.3       1 <0>         0.0259
      6 H1         -1.3525    5.7610    1.4193 H         1 <0>         0.1081
      7 C5         -2.3885    5.2221   -0.4431 C.3       1 <0>         0.0353
      8 O1         -2.4463    3.8383   -0.0800 O.3       1 <0>        -0.2927
      9 C6         -1.2661    3.1605   -0.0646 C.ar      1 <0>         0.0502
     10 C7         -1.2773    1.7736   -0.0867 C.ar      1 <0>        -0.1078
     11 C8         -0.0874    1.0713   -0.0626 C.ar      1 <0>        -0.1001
     12 C9          1.1173    1.7487   -0.0270 C.ar      1 <0>        -0.1086
     13 C10         1.1356    3.1304   -0.0110 C.ar      1 <0>        -0.1064
     14 C11        -0.0552    3.8415   -0.0309 C.ar      1 <0>         0.0375
     15 O2         -0.0212    5.2021   -0.0221 O.3       1 <0>        -0.3158
     16 C12        -0.3509    9.4625    0.8535 C.3       1 <0>        -0.0266
     17 C13         0.3984   10.0498    2.0216 C.2       1 <0>         0.5129
     18 O3          1.0977    9.3394    2.7125 O.2       1 <0>        -0.5047
     19 N2          0.2916   11.3645    2.2986 N.am      1 <0>        -0.4962
     20 N3          0.9883   11.9104    3.3845 N.am      1 <0>        -0.3782
     21 C14         0.4136   12.2676    4.5519 C.2       1 <0>         0.5346
     22 O4         -0.7582   12.1801    4.8500 O.2       1 <0>        -0.4370
     23 C15         1.5391   12.7970    5.4105 C.3       1 <0>         0.1282
     24 C16         1.2870   14.2569    5.7707 C.3       1 <0>        -0.1157
     25 C17         0.0268   14.3623    6.6334 C.3       1 <0>        -0.1255
     26 C18         0.2094   13.5302    7.9044 C.3       1 <0>        -0.0910
     27 C19         0.4368   12.0648    7.5275 C.3       1 <0>        -0.1245
     28 C20         1.6985   11.9501    6.6683 C.3       1 <0>        -0.1143
     29 C21        -1.0448   13.6444    8.7732 C.3       1 <0>        -0.1511
     30 N4          2.7270   12.6763    4.5555 N.am      1 <0>        -0.7187
     31 C22         2.3057   12.1478    3.3906 C.2       1 <0>         0.7171
     32 O5          3.0392   11.9125    2.4506 O.2       1 <0>        -0.5298
     33 H2          2.4751    7.9902   -1.3586 H         1 <0>         0.1091
     34 H3          1.3151    9.3223   -1.0319 H         1 <0>         0.0746
     35 H4          0.7297    7.7705   -1.7218 H         1 <0>         0.0805
     36 H5          1.3645    6.5966    0.3799 H         1 <0>         0.1507
     37 H6          1.9499    8.1484    1.0699 H         1 <0>         0.1399
     38 H7         -2.1126    7.8355    0.0961 H         1 <0>         0.1582
     39 H8         -0.8263    7.4455   -1.0956 H         1 <0>         0.1515
     40 H9         -3.3335    5.7209   -0.1821 H         1 <0>         0.1336
     41 H10        -2.2074    5.3219   -1.5235 H         1 <0>         0.0915
     42 H11        -2.2169    1.2421   -0.1183 H         1 <0>         0.1415
     43 H12        -0.0984   -0.0086   -0.0760 H         1 <0>         0.1407
     44 H13         2.0457    1.1971   -0.0114 H         1 <0>         0.1398
     45 H14         2.0780    3.6572    0.0174 H         1 <0>         0.1364
     46 H15         0.0171    9.9110   -0.0811 H         1 <0>         0.1716
     47 H16        -1.4249    9.6735    0.9634 H         1 <0>         0.1705
     48 H17        -0.3426   12.0088    1.6720 H         1 <0>         0.4646
     49 H18         2.1479   14.6501    6.3313 H         1 <0>         0.0960
     50 H19         1.1501   14.8433    4.8502 H         1 <0>         0.0762
     51 H20        -0.1448   15.4144    6.9048 H         1 <0>         0.0789
     52 H21        -0.8375   13.9839    6.0678 H         1 <0>         0.0789
     53 H22         1.0792   13.9036    8.4648 H         1 <0>         0.0755
     54 H23         0.5596   11.4658    8.4419 H         1 <0>         0.0777
     55 H24        -0.4291   11.6936    6.9596 H         1 <0>         0.0772
     56 H25         1.8536   10.8986    6.3851 H         1 <0>         0.0746
     57 H26         2.5659   12.3068    7.2430 H         1 <0>         0.0959
     58 H27        -0.9136   13.0462    9.6870 H         1 <0>         0.0582
     59 H28        -1.9145   13.2713    8.2124 H         1 <0>         0.0565
     60 H29        -1.2080   14.6978    9.0448 H         1 <0>         0.0589
     61 H30         3.7098   12.9978    4.9308 H         1 <0>         0.4810
     62 H31        -0.2673    7.6226    1.8378 H         1 <0>         0.4515
@<TRIPOS>BOND
     1    1    2 1
     2    1   33 1
     3    1   34 1
     4    1   35 1
     5    2    3 1
     6    2   36 1
     7    2   37 1
     8    3    4 1
     9    3   16 1
    10    3   62 1
    11    4    5 1
    12    4   38 1
    13    4   39 1
    14    5    6 1
    15    5   15 1
    16    5    7 1
    17    7    8 1
    18    7   40 1
    19    7   41 1
    20    8    9 1
    21    9   14 ar
    22    9   10 ar
    23   10   11 ar
    24   10   42 1
    25   11   12 ar
    26   11   43 1
    27   12   13 ar
    28   12   44 1
    29   13   14 ar
    30   13   45 1
    31   14   15 1
    32   16   17 1
    33   16   46 1
    34   16   47 1
    35   17   18 2
    36   17   19 am
    37   19   20 1
    38   19   48 1
    39   20   31 am
    40   20   21 am
    41   21   22 2
    42   21   23 1
    43   23   28 1
    44   23   24 1
    45   23   30 1
    46   24   25 1
    47   24   49 1
    48   24   50 1
    49   25   26 1
    50   25   51 1
    51   25   52 1
    52   26   27 1
    53   26   29 1
    54   26   53 1
    55   27   28 1
    56   27   54 1
    57   27   55 1
    58   28   56 1
    59   28   57 1
    60   29   58 1
    61   29   59 1
    62   29   60 1
    63   30   31 am
    64   30   61 1
    65   31   32 2
@<TRIPOS>MOLECULE
ZINC39659426
   70    73     0     0     0
SMALL
USER_CHARGES

@<TRIPOS>ATOM
      1 C1         -1.1916    1.3237   -0.3844 C.3       1 <0>        -0.1216
      2 C2         -0.5004   -0.0078   -0.2422 C.ar      1 <0>        -0.0306
      3 C3         -0.0119   -0.6668   -1.3708 C.ar      1 <0>        -0.1305
      4 C4          0.6275   -1.8994   -1.2309 C.ar      1 <0>        -0.0828
      5 C5          0.7744   -2.4616    0.0209 C.ar      1 <0>        -0.1137
      6 C6          0.2899   -1.8076    1.1383 C.ar      1 <0>        -0.0831
      7 C7         -0.3430   -0.5784    1.0095 C.ar      1 <0>         0.0802
      8 O1         -0.8128    0.0627    2.1122 O.3       1 <0>        -0.2951
      9 C8         -0.1085    1.1039    2.5840 C.2       1 <0>         0.4574
     10 O2          0.9563    1.3874    2.0881 O.2       1 <0>        -0.4892
     11 C9         -0.6460    1.9191    3.7319 C.3       1 <0>        -0.1454
     12 C10        -0.1716   -0.0616   -2.7104 C.2       1 <0>         0.5930
     13 O3         -0.0985    1.1442   -2.8452 O.2       1 <0>        -0.5156
     14 N1         -0.3983   -0.8470   -3.7820 N.am      1 <0>        -0.6199
     15 C11        -0.6434   -2.3083   -3.8015 C.3       1 <0>         0.1060
     16 C12        -1.7364   -2.5065   -4.8756 C.3       1 <0>        -0.1136
     17 H1         -2.7229   -2.5326   -4.4128 H         1 <0>         0.1137
     18 C13        -1.6089   -1.2811   -5.7959 C.3       1 <0>        -0.0722
     19 C14        -0.4651   -0.4429   -5.2069 C.3       1 <0>         0.1084
     20 C15        -2.9045   -0.4755   -5.7857 C.3       1 <0>        -0.1343
     21 C16        -2.7733    0.7055   -6.7516 C.3       1 <0>        -0.0111
     22 N2         -2.4948    0.2057   -8.1034 N.4       1 <0>        -0.5044
     23 C17        -1.2017   -0.4885   -8.1244 C.3       1 <0>        -0.0071
     24 C18        -1.2663   -1.7198   -7.2163 C.3       1 <0>        -0.1479
     25 C19        -1.4873   -3.7753   -5.6497 C.2       1 <0>         0.5219
     26 O4         -0.3639   -4.2249   -5.7318 O.2       1 <0>        -0.5182
     27 N3         -2.5130   -4.4102   -6.2509 N.am      1 <0>        -0.7241
     28 C20        -2.2709   -5.6436   -7.0035 C.3       1 <0>         0.1271
     29 C21        -3.5918   -6.1565   -7.5805 C.3       1 <0>         0.0323
     30 H2         -4.3400   -6.2702   -6.7961 H         1 <0>         0.0951
     31 C22        -3.3832   -7.4876   -8.3451 C.3       1 <0>         0.0299
     32 O5         -4.4624   -7.4871   -9.3014 O.3       1 <0>        -0.3708
     33 C23        -4.8860   -6.1272   -9.4650 C.3       1 <0>         0.2528
     34 O6         -4.0714   -5.2845   -8.6320 O.3       1 <0>        -0.3735
     35 C24        -6.3531   -5.9927   -9.0522 C.3       1 <0>        -0.1731
     36 C25        -4.7270   -5.7118  -10.9289 C.3       1 <0>        -0.1556
     37 H3         -0.4692    2.1260   -0.2337 H         1 <0>         0.0838
     38 H4         -1.6219    1.4050   -1.3825 H         1 <0>         0.0798
     39 H5         -1.9836    1.4033    0.3603 H         1 <0>         0.0697
     40 H6          1.0068   -2.4133   -2.1019 H         1 <0>         0.1355
     41 H7          1.2691   -3.4157    0.1278 H         1 <0>         0.1430
     42 H8          0.4078   -2.2523    2.1154 H         1 <0>         0.1410
     43 H9         -0.3001    1.4928    4.6735 H         1 <0>         0.1114
     44 H10        -0.2909    2.9460    3.6458 H         1 <0>         0.1096
     45 H11        -1.7356    1.9080    3.7065 H         1 <0>         0.0983
     46 H12         0.2649   -2.8423   -4.0806 H         1 <0>         0.1030
     47 H13        -1.0006   -2.6468   -2.8289 H         1 <0>         0.0980
     48 H14        -0.6913    0.6201   -5.2907 H         1 <0>         0.0915
     49 H15         0.4725   -0.6743   -5.7123 H         1 <0>         0.0861
     50 H16        -3.7315   -1.1123   -6.0999 H         1 <0>         0.0967
     51 H17        -3.0935   -0.1030   -4.7790 H         1 <0>         0.1182
     52 H18        -3.7034    1.2737   -6.7590 H         1 <0>         0.1400
     53 H19        -1.9565    1.3506   -6.4276 H         1 <0>         0.1344
     54 H20        -3.2235   -0.4350   -8.3804 H         1 <0>         0.4283
     55 H21        -0.9735   -0.8005   -9.1435 H         1 <0>         0.1394
     56 H22        -0.4222    0.1850   -7.7680 H         1 <0>         0.1332
     57 H23        -0.3002   -2.2245   -7.2183 H         1 <0>         0.1243
     58 H24        -2.0343   -2.4016   -7.5818 H         1 <0>         0.1006
     59 H25        -3.4114   -4.0506   -6.1852 H         1 <0>         0.4041
     60 H26        -1.5731   -5.4422   -7.8163 H         1 <0>         0.0850
     61 H27        -1.8474   -6.3972   -6.3395 H         1 <0>         0.0944
     62 H28        -2.4187   -7.4933   -8.8527 H         1 <0>         0.0831
     63 H29        -3.4686   -8.3379   -7.6685 H         1 <0>         0.1080
     64 H30        -6.4692   -6.3079   -8.0152 H         1 <0>         0.0635
     65 H31        -6.6651   -4.9532   -9.1530 H         1 <0>         0.0750
     66 H32        -6.9703   -6.6211   -9.6942 H         1 <0>         0.0799
     67 H33        -5.3572   -6.3425  -11.5560 H         1 <0>         0.0822
     68 H34        -5.0254   -4.6699  -11.0454 H         1 <0>         0.0729
     69 H35        -3.6853   -5.8270  -11.2282 H         1 <0>         0.0674
     70 H36        -2.4693    0.9810   -8.7486 H         1 <0>         0.4343
@<TRIPOS>BOND
     1    1    2 1
     2    1   37 1
     3    1   38 1
     4    1   39 1
     5    2    7 ar
     6    2    3 ar
     7    3    4 ar
     8    3   12 1
     9    4    5 ar
    10    4   40 1
    11    5    6 ar
    12    5   41 1
    13    6    7 ar
    14    6   42 1
    15    7    8 1
    16    8    9 1
    17    9   10 2
    18    9   11 1
    19   11   43 1
    20   11   44 1
    21   11   45 1
    22   12   13 2
    23   12   14 am
    24   14   19 1
    25   14   15 1
    26   15   16 1
    27   15   46 1
    28   15   47 1
    29   16   17 1
    30   16   18 1
    31   16   25 1
    32   18   24 1
    33   18   19 1
    34   18   20 1
    35   19   48 1
    36   19   49 1
    37   20   21 1
    38   20   50 1
    39   20   51 1
    40   21   22 1
    41   21   52 1
    42   21   53 1
    43   22   23 1
    44   22   54 1
    45   22   70 1
    46   23   24 1
    47   23   55 1
    48   23   56 1
    49   24   57 1
    50   24   58 1
    51   25   26 2
    52   25   27 am
    53   27   28 1
    54   27   59 1
    55   28   29 1
    56   28   60 1
    57   28   61 1
    58   29   30 1
    59   29   34 1
    60   29   31 1
    61   31   32 1
    62   31   62 1
    63   31   63 1
    64   32   33 1
    65   33   34 1
    66   33   35 1
    67   33   36 1
    68   35   64 1
    69   35   65 1
    70   35   66 1
    71   36   67 1
    72   36   68 1
    73   36   69 1
@<TRIPOS>MOLECULE
ZINC39674172
   70    73     0     0     0
SMALL
USER_CHARGES

@<TRIPOS>ATOM
      1 C1         -3.0449   -0.7322   -4.3959 C.3       1 <0>        -0.1185
      2 C2         -2.7384   -2.0007   -3.5973 C.3       1 <0>        -0.0354
      3 H1         -3.6049   -2.6618   -3.5790 H         1 <0>         0.1477
      4 C3         -2.2979   -1.6537   -2.1862 C.2       1 <0>        -0.1654
      5 C4         -1.0560   -2.1369   -2.1093 C.2       1 <0>         0.0000
      6 N1         -0.6955   -2.7216   -3.2732 N.2       1 <0>        -0.1582
      7 N2         -1.5647   -2.6954   -4.1533 N.2       1 <0>        -0.1410
      8 C5         -0.1753   -2.0431   -0.8901 C.3       1 <0>        -0.0981
      9 C6         -3.0807   -0.9311   -1.1203 C.3       1 <0>         0.2122
     10 H2         -2.4712   -0.8391   -0.2213 H         1 <0>         0.1105
     11 C7         -4.3508   -1.7205   -0.7969 C.3       1 <0>        -0.1608
     12 N3         -3.4447    0.4037   -1.6021 N.am      1 <0>        -0.7262
     13 C8         -3.7102    1.3888   -0.7214 C.2       1 <0>         0.5230
     14 O1         -3.6478    1.1702    0.4699 O.2       1 <0>        -0.5137
     15 C9         -4.0847    2.7618   -1.2170 C.3       1 <0>        -0.1141
     16 H3         -3.6174    2.9566   -2.1823 H         1 <0>         0.1122
     17 C10        -3.6658    3.8373   -0.1897 C.3       1 <0>         0.1166
     18 N4         -4.7561    4.8400   -0.2319 N.am      1 <0>        -0.6174
     19 C11        -5.9937    4.0338   -0.3607 C.3       1 <0>         0.0921
     20 C12        -5.6131    2.8934   -1.3258 C.3       1 <0>        -0.0732
     21 C13        -6.2873    1.5936   -0.8975 C.3       1 <0>        -0.1500
     22 C14        -7.8028    1.7289   -1.0698 C.3       1 <0>        -0.0087
     23 N5         -8.1131    2.0251   -2.4736 N.4       1 <0>        -0.5046
     24 C15        -7.5387    3.3224   -2.8503 C.3       1 <0>        -0.0121
     25 C16        -6.0121    3.2544   -2.7534 C.3       1 <0>        -0.1358
     26 C17        -4.6473    6.1819   -0.1680 C.2       1 <0>         0.5862
     27 O2         -3.5492    6.7031   -0.1638 O.2       1 <0>        -0.5045
     28 C18        -5.8638    7.0201   -0.1031 C.ar      1 <0>        -0.0554
     29 C19        -7.0665    6.4738    0.3457 C.ar      1 <0>        -0.1826
     30 C20        -8.2035    7.2626    0.4054 C.ar      1 <0>         0.1623
     31 C21        -8.1476    8.5939    0.0193 C.ar      1 <0>        -0.2741
     32 C22        -6.9537    9.1411   -0.4276 C.ar      1 <0>         0.1725
     33 C23        -5.8106    8.3609   -0.4850 C.ar      1 <0>        -0.1276
     34 O3         -6.9043   10.4459   -0.8047 O.3       1 <0>        -0.3054
     35 C24        -8.1188   11.1935   -0.7149 C.3       1 <0>         0.0230
     36 O4         -9.3757    6.7315    0.8425 O.3       1 <0>        -0.3150
     37 C25       -10.5087    7.6016    0.8785 C.3       1 <0>         0.0228
     38 H4         -3.0982   -0.9749   -5.4571 H         1 <0>         0.0885
     39 H5         -3.9992   -0.3189   -4.0693 H         1 <0>         0.0667
     40 H6         -2.2556    0.0011   -4.2301 H         1 <0>         0.0670
     41 H7         -0.3331   -2.9183   -0.2597 H         1 <0>         0.0869
     42 H8          0.8693   -2.0013   -1.1987 H         1 <0>         0.0867
     43 H9         -0.4251   -1.1421   -0.3298 H         1 <0>         0.0784
     44 H10        -4.0799   -2.7136   -0.4384 H         1 <0>         0.0766
     45 H11        -4.9170   -1.1978   -0.0259 H         1 <0>         0.0720
     46 H12        -4.9602   -1.8124   -1.6958 H         1 <0>         0.0581
     47 H13        -3.4946    0.5785   -2.5549 H         1 <0>         0.3998
     48 H14        -3.5885    3.4017    0.8064 H         1 <0>         0.1017
     49 H15        -2.7193    4.2927   -0.4808 H         1 <0>         0.0995
     50 H16        -6.2880    3.6311    0.6084 H         1 <0>         0.0917
     51 H17        -6.7978    4.6362   -0.7835 H         1 <0>         0.0991
     52 H18        -5.9226    0.7735   -1.5160 H         1 <0>         0.0973
     53 H19        -6.0566    1.3915    0.1485 H         1 <0>         0.1282
     54 H20        -8.2859    0.7957   -0.7802 H         1 <0>         0.1403
     55 H21        -8.1692    2.5384   -0.4383 H         1 <0>         0.1350
     56 H22        -7.7249    1.3033   -3.0620 H         1 <0>         0.4274
     57 H23        -7.8272    3.5639   -3.8733 H         1 <0>         0.1409
     58 H24        -7.9113    4.0939   -2.1765 H         1 <0>         0.1339
     59 H25        -5.5873    4.2233   -3.0160 H         1 <0>         0.1206
     60 H26        -5.6374    2.4944   -3.4391 H         1 <0>         0.0967
     61 H27        -7.1111    5.4373    0.6458 H         1 <0>         0.1421
     62 H28        -9.0362    9.2060    0.0664 H         1 <0>         0.1428
     63 H29        -4.8805    8.7888   -0.8288 H         1 <0>         0.1487
     64 H30        -7.9407   12.2169   -1.0450 H         1 <0>         0.1102
     65 H31        -8.8763   10.7337   -1.3496 H         1 <0>         0.0580
     66 H32        -8.4658   11.2002    0.3184 H         1 <0>         0.0599
     67 H33       -11.3764    7.0532    1.2454 H         1 <0>         0.1076
     68 H34       -10.3016    8.4405    1.5429 H         1 <0>         0.0611
     69 H35       -10.7124    7.9746   -0.1252 H         1 <0>         0.0583
     70 H36        -9.1142    2.0535   -2.5966 H         1 <0>         0.4347
@<TRIPOS>BOND
     1    1    2 1
     2    1   38 1
     3    1   39 1
     4    1   40 1
     5    2    3 1
     6    2    7 1
     7    2    4 1
     8    4    5 2
     9    4    9 1
    10    5    6 1
    11    5    8 1
    12    6    7 2
    13    8   41 1
    14    8   42 1
    15    8   43 1
    16    9   10 1
    17    9   11 1
    18    9   12 1
    19   11   44 1
    20   11   45 1
    21   11   46 1
    22   12   13 am
    23   12   47 1
    24   13   14 2
    25   13   15 1
    26   15   16 1
    27   15   20 1
    28   15   17 1
    29   17   18 1
    30   17   48 1
    31   17   49 1
    32   18   19 1
    33   18   26 am
    34   19   20 1
    35   19   50 1
    36   19   51 1
    37   20   25 1
    38   20   21 1
    39   21   22 1
    40   21   52 1
    41   21   53 1
    42   22   23 1
    43   22   54 1
    44   22   55 1
    45   23   24 1
    46   23   56 1
    47   23   70 1
    48   24   25 1
    49   24   57 1
    50   24   58 1
    51   25   59 1
    52   25   60 1
    53   26   27 2
    54   26   28 1
    55   28   33 ar
    56   28   29 ar
    57   29   30 ar
    58   29   61 1
    59   30   31 ar
    60   30   36 1
    61   31   32 ar
    62   31   62 1
    63   32   33 ar
    64   32   34 1
    65   33   63 1
    66   34   35 1
    67   35   64 1
    68   35   65 1
    69   35   66 1
    70   36   37 1
    71   37   67 1
    72   37   68 1
    73   37   69 1
@<TRIPOS>MOLECULE
ZINC63329171
   52    56     0     0     0
SMALL
USER_CHARGES

@<TRIPOS>ATOM
      1 C1         -0.0163    1.3482    0.0095 C.ar      1 <0>        -0.1470
      2 C2          1.1658    2.1014    0.0022 C.ar      1 <0>         0.0575
      3 C3          2.3912    1.5352   -0.0125 C.ar      1 <0>        -0.2103
      4 C4          2.5288    0.1198   -0.0218 C.ar      1 <0>         0.3294
      5 N1          3.5868   -0.6543   -0.0369 N.pl3     1 <0>        -0.5829
      6 C5          3.1432   -2.0528   -0.0408 C.3       1 <0>         0.0612
      7 C6          1.6315   -2.0084   -0.0255 C.2       1 <0>         0.0571
      8 C7          1.2951   -0.6984   -0.0144 C.ar      1 <0>        -0.1582
      9 C8          0.0021   -0.0041    0.0020 C.ar      1 <0>        -0.0154
     10 C9          0.6905   -3.1856   -0.0239 C.3       1 <0>        -0.0917
     11 C10         0.4565   -3.6534   -1.4617 C.3       1 <0>         0.1010
     12 H1          0.1147   -2.8252   -2.0824 H         1 <0>         0.1407
     13 C11        -0.5423   -4.7931   -1.4958 C.2       1 <0>         0.5354
     14 O1         -1.6984   -4.7647   -1.1319 O.2       1 <0>        -0.4416
     15 N2          0.1219   -5.8442   -2.0155 N.am      1 <0>        -0.5567
     16 C12         1.3883   -5.5304   -2.3115 C.2       1 <0>         0.7110
     17 O2          2.1840   -6.3137   -2.7915 O.2       1 <0>        -0.5154
     18 N3          1.6837   -4.2472   -2.0198 N.am      1 <0>        -0.7337
     19 C13        -0.4696   -7.1674   -2.2293 C.3       1 <0>         0.0975
     20 C14        -1.0751   -7.2302   -3.6079 C.2       1 <0>         0.5022
     21 O3         -1.0182   -6.2648   -4.3397 O.2       1 <0>        -0.5295
     22 N4         -1.6798   -8.3592   -4.0274 N.am      1 <0>        -0.7183
     23 C15        -2.2685   -8.4203   -5.3676 C.3       1 <0>         0.1687
     24 C16        -2.8769   -9.7814   -5.5875 C.ar      1 <0>        -0.1094
     25 C17        -2.1115  -10.8008   -6.1226 C.ar      1 <0>        -0.0860
     26 C18        -2.6649  -12.0511   -6.3257 C.ar      1 <0>        -0.1016
     27 C19        -3.9894  -12.2854   -5.9935 C.ar      1 <0>         0.0464
     28 C20        -4.7604  -11.2586   -5.4545 C.ar      1 <0>         0.0315
     29 C21        -4.1974  -10.0095   -5.2483 C.ar      1 <0>        -0.0809
     30 O4         -6.0167  -11.7358   -5.2152 O.3       1 <0>        -0.3068
     31 C22        -6.1227  -12.9448   -5.9901 C.3       1 <0>         0.2125
     32 O5         -4.7625  -13.4060   -6.0919 O.3       1 <0>        -0.3059
     33 H2         -0.9665    1.8612    0.0259 H         1 <0>         0.1600
     34 H3          1.0933    3.1789    0.0083 H         1 <0>         0.1623
     35 H4          3.2717    2.1606   -0.0175 H         1 <0>         0.1617
     36 H5          3.4952   -2.5561   -0.9413 H         1 <0>         0.1658
     37 H6          3.5129   -2.5667    0.8465 H         1 <0>         0.1781
     38 H7         -0.9210   -0.5647    0.0081 H         1 <0>         0.1647
     39 H8          1.1268   -3.9987    0.5563 H         1 <0>         0.1255
     40 H9         -0.2596   -2.8905    0.4214 H         1 <0>         0.1379
     41 H10         2.5353   -3.8017   -2.1509 H         1 <0>         0.4353
     42 H11         0.3036   -7.9302   -2.1369 H         1 <0>         0.1351
     43 H12        -1.2448   -7.3436   -1.4836 H         1 <0>         0.1334
     44 H13        -1.7253   -9.1314   -3.4421 H         1 <0>         0.4071
     45 H14        -3.0416   -7.6575   -5.4599 H         1 <0>         0.0829
     46 H15        -1.4933   -8.2441   -6.1133 H         1 <0>         0.0855
     47 H16        -1.0790  -10.6197   -6.3828 H         1 <0>         0.1416
     48 H17        -2.0646  -12.8456   -6.7439 H         1 <0>         0.1411
     49 H18        -4.7917   -9.2126   -4.8263 H         1 <0>         0.1380
     50 H19        -6.7385  -13.6795   -5.4712 H         1 <0>         0.1366
     51 H20        -6.5299  -12.7318   -6.9784 H         1 <0>         0.0892
     52 H21         4.5087   -0.3528   -0.0446 H         1 <0>         0.4573
@<TRIPOS>BOND
     1    1    9 ar
     2    1    2 ar
     3    1   33 1
     4    2    3 ar
     5    2   34 1
     6    3    4 ar
     7    3   35 1
     8    4    8 ar
     9    4    5 2
    10    5    6 1
    11    5   52 1
    12    6    7 1
    13    6   36 1
    14    6   37 1
    15    7    8 2
    16    7   10 1
    17    8    9 ar
    18    9   38 1
    19   10   11 1
    20   10   39 1
    21   10   40 1
    22   11   12 1
    23   11   18 1
    24   11   13 1
    25   13   14 2
    26   13   15 am
    27   15   16 am
    28   15   19 1
    29   16   17 2
    30   16   18 am
    31   18   41 1
    32   19   20 1
    33   19   42 1
    34   19   43 1
    35   20   21 2
    36   20   22 am
    37   22   23 1
    38   22   44 1
    39   23   24 1
    40   23   45 1
    41   23   46 1
    42   24   29 ar
    43   24   25 ar
    44   25   26 ar
    45   25   47 1
    46   26   27 ar
    47   26   48 1
    48   27   32 1
    49   27   28 ar
    50   28   29 ar
    51   28   30 1
    52   29   49 1
    53   30   31 1
    54   31   32 1
    55   31   50 1
    56   31   51 1
@<TRIPOS>MOLECULE
ZINC09155193
   63    67     0     0     0
SMALL
USER_CHARGES
2-[2-(2,5-dioxabicyclo[4.4.0]deca-7,9,11-trien-8-yl)pyrrolidin-1-yl]-N-(4-ethyl-2,5-dioxo-4-phenyl-imidazolidin-1-yl)-acetamide
@<TRIPOS>ATOM
      1 C1          1.5302   -0.3689    2.4835 C.3       1 <0>        -0.1587
      2 C2          1.8221   -1.2034    1.2347 C.3       1 <0>        -0.1215
      3 C3          1.4668   -0.3940   -0.0141 C.3       1 <0>         0.1885
      4 C4          0.0021   -0.0041    0.0020 C.2       1 <0>         0.5403
      5 O1         -0.9541   -0.7494    0.0065 O.2       1 <0>        -0.4337
      6 N1         -0.0162    1.3435    0.0094 N.am      1 <0>        -0.3788
      7 C5          1.2205    1.8538    0.0004 C.2       1 <0>         0.7115
      8 O2          1.4597    3.0454    0.0041 O.2       1 <0>        -0.5232
      9 N2          2.1697    0.9006   -0.0138 N.am      1 <0>        -0.7002
     10 N3         -1.1858    2.1147    0.0193 N.am      1 <0>        -0.4835
     11 C6         -1.5766    2.7317    1.1520 C.2       1 <0>         0.5101
     12 O3         -0.9158    2.6193    2.1628 O.2       1 <0>        -0.4966
     13 C7         -2.8347    3.5612    1.1626 C.3       1 <0>        -0.0138
     14 C8         -2.0318    5.1562    2.8044 C.3       1 <0>        -0.0095
     15 C9         -2.7948    6.4520    3.1511 C.3       1 <0>        -0.1405
     16 C10        -4.1911    5.9308    3.5817 C.3       1 <0>        -0.1319
     17 C11        -4.3837    4.7264    2.6266 C.3       1 <0>         0.0851
     18 H1         -4.7367    5.0668    1.6531 H         1 <0>         0.1539
     19 C12        -5.3519    3.7358    3.2201 C.ar      1 <0>        -0.1408
     20 C13        -4.9475    2.9088    4.2517 C.ar      1 <0>        -0.1195
     21 C14        -5.8321    1.9982    4.7977 C.ar      1 <0>        -0.0973
     22 C15        -7.1285    1.9119    4.3122 C.ar      1 <0>         0.0807
     23 C16        -7.5358    2.7453    3.2774 C.ar      1 <0>         0.0655
     24 C17        -6.6441    3.6594    2.7362 C.ar      1 <0>        -0.0825
     25 O4         -8.8055    2.6823    2.7911 O.3       1 <0>        -0.3003
     26 C18        -9.5559    1.5035    3.1029 C.3       1 <0>         0.0186
     27 C19        -9.3806    1.2039    4.5978 C.3       1 <0>         0.0168
     28 O5         -7.9863    1.0051    4.8550 O.3       1 <0>        -0.2988
     29 C20         1.7940   -1.1747   -1.2608 C.ar      1 <0>        -0.1151
     30 C21         1.6983   -2.5537   -1.2578 C.ar      1 <0>        -0.0882
     31 C22         1.9938   -3.2695   -2.4029 C.ar      1 <0>        -0.1140
     32 C23         2.3946   -2.6070   -3.5480 C.ar      1 <0>        -0.0981
     33 C24         2.4958   -1.2284   -3.5494 C.ar      1 <0>        -0.1158
     34 C25         2.1953   -0.5122   -2.4058 C.ar      1 <0>        -0.0995
     35 H2          0.4719   -0.1093    2.5078 H         1 <0>         0.0495
     36 H3          1.7834   -0.9456    3.3732 H         1 <0>         0.0757
     37 H4          2.1275    0.5426    2.4592 H         1 <0>         0.0628
     38 H5          1.2249   -2.1149    1.2590 H         1 <0>         0.0980
     39 H6          2.8805   -1.4630    1.2105 H         1 <0>         0.1010
     40 H7          3.1298    1.0389   -0.0220 H         1 <0>         0.4509
     41 H8         -1.7143    2.2045   -0.7891 H         1 <0>         0.4369
     42 H9         -2.7415    4.3718    0.4399 H         1 <0>         0.1712
     43 H10        -3.6857    2.9339    0.8974 H         1 <0>         0.1678
     44 H11        -1.4235    4.8455    3.6539 H         1 <0>         0.1368
     45 H12        -1.3986    5.3207    1.9326 H         1 <0>         0.1320
     46 H13        -2.3090    6.9770    3.9736 H         1 <0>         0.1163
     47 H14        -2.8744    7.0980    2.2768 H         1 <0>         0.1023
     48 H15        -4.1830    5.6065    4.6223 H         1 <0>         0.1032
     49 H16        -4.9584    6.6871    3.4159 H         1 <0>         0.1231
     50 H17        -3.9386    2.9744    4.6312 H         1 <0>         0.1295
     51 H18        -5.5136    1.3533    5.6033 H         1 <0>         0.1487
     52 H19        -6.9588    4.3098    1.9335 H         1 <0>         0.1474
     53 H20       -10.6104    1.6700    2.8825 H         1 <0>         0.1340
     54 H21        -9.1847    0.6649    2.5138 H         1 <0>         0.0856
     55 H22        -9.7466    2.0450    5.1866 H         1 <0>         0.0869
     56 H23        -9.9348    0.3026    4.8595 H         1 <0>         0.1339
     57 H24         1.3891   -3.0716   -0.3620 H         1 <0>         0.1323
     58 H25         1.9151   -4.3467   -2.4018 H         1 <0>         0.1331
     59 H26         2.6291   -3.1665   -4.4416 H         1 <0>         0.1310
     60 H27         2.8093   -0.7108   -4.4439 H         1 <0>         0.1304
     61 H28         2.2743    0.5649   -2.4069 H         1 <0>         0.1222
     62 N4         -3.0406    4.1218    2.5235 N.4       1 <0>        -0.3842
     63 H29        -2.9541    3.3667    3.2138 H         1 <0>         0.4324
@<TRIPOS>BOND
     1    1    2 1
     2    1   35 1
     3    1   36 1
     4    1   37 1
     5    2    3 1
     6    2   38 1
     7    2   39 1
     8    3    9 1
     9    3    4 1
    10    3   29 1
    11    4    5 2
    12    4    6 am
    13    6    7 am
    14    6   10 1
    15    7    8 2
    16    7    9 am
    17    9   40 1
    18   10   11 am
    19   10   41 1
    20   11   12 2
    21   11   13 1
    22   13   42 1
    23   13   43 1
    24   13   62 1
    25   14   15 1
    26   14   44 1
    27   14   45 1
    28   14   62 1
    29   15   16 1
    30   15   46 1
    31   15   47 1
    32   16   17 1
    33   16   48 1
    34   16   49 1
    35   17   18 1
    36   17   19 1
    37   17   62 1
    38   19   24 ar
    39   19   20 ar
    40   20   21 ar
    41   20   50 1
    42   21   22 ar
    43   21   51 1
    44   22   28 1
    45   22   23 ar
    46   23   24 ar
    47   23   25 1
    48   24   52 1
    49   25   26 1
    50   26   27 1
    51   26   53 1
    52   26   54 1
    53   27   28 1
    54   27   55 1
    55   27   56 1
    56   29   34 ar
    57   29   30 ar
    58   30   31 ar
    59   30   57 1
    60   31   32 ar
    61   31   58 1
    62   32   33 ar
    63   32   59 1
    64   33   34 ar
    65   33   60 1
    66   34   61 1
    67   62   63 1
@<TRIPOS>MOLECULE
ZINC33154782
   69    72     0     0     0
SMALL
USER_CHARGES

@<TRIPOS>ATOM
      1 C1          0.3944    1.1363    0.5128 C.3       1 <0>        -0.1738
      2 C2          0.2378   -0.3460    0.1675 C.3       1 <0>         0.1775
      3 N1          0.7637   -0.5954   -1.1857 N.pl3     1 <0>        -0.7105
      4 C3          2.1165   -0.3018   -1.3838 C.cat     1 <0>         0.5926
      5 N2          2.5526    0.2264   -2.5044 N.pl3     1 <0>        -0.4429
      6 N3          3.8594    0.7255   -2.5815 N.2       1 <0>        -0.3649
      7 C4          4.3392    1.1347   -3.7335 C.2       1 <0>         0.4797
      8 N4          5.3787    2.0672   -3.8091 N.pl3     1 <0>        -0.7003
      9 C5          5.2854    3.0539   -4.8990 C.3       1 <0>         0.1844
     10 C6          5.2588    2.3147   -6.2358 C.3       1 <0>        -0.1030
     11 C7          4.2448    1.2025   -6.2191 C.ar      1 <0>        -0.0030
     12 C8          3.8125    0.6288   -5.0214 C.ar      1 <0>        -0.1440
     13 C9          2.8829   -0.4128   -5.0313 C.ar      1 <0>        -0.1740
     14 C10         2.3874   -0.8789   -6.2348 C.ar      1 <0>         0.1071
     15 C11         2.8187   -0.3058   -7.4296 C.ar      1 <0>         0.1583
     16 C12         3.7372    0.7351   -7.4168 C.ar      1 <0>        -0.1773
     17 O1          2.3299   -0.7613   -8.6131 O.3       1 <0>        -0.2923
     18 C13         2.8135   -0.1304   -9.8006 C.3       1 <0>         0.0178
     19 O2          1.4822   -1.8937   -6.2528 O.3       1 <0>        -0.2893
     20 C14         1.0866   -2.4326   -4.9898 C.3       1 <0>         0.0218
     21 C15         6.4987    3.9849   -4.8525 C.3       1 <0>        -0.1586
     22 C16         4.0025    3.8724   -4.7406 C.3       1 <0>        -0.1665
     23 C17         3.0311   -0.6188   -0.2635 C.ar      1 <0>        -0.1382
     24 C18         2.5071   -1.0328    0.9623 C.ar      1 <0>         0.0038
     25 C19         3.3671   -1.3157    2.0068 C.ar      1 <0>        -0.1946
     26 C20         4.7380   -1.1969    1.8370 C.ar      1 <0>         0.1769
     27 C21         5.2629   -0.7905    0.6118 C.ar      1 <0>         0.0831
     28 C22         4.4113   -0.5008   -0.4380 C.ar      1 <0>        -0.1056
     29 O3          6.6085   -0.6787    0.4494 O.3       1 <0>        -0.2941
     30 C23         7.0743   -0.2568   -0.8340 C.3       1 <0>         0.0241
     31 O4          5.5742   -1.4778    2.8710 O.3       1 <0>        -0.2901
     32 C24         4.9713   -1.8886    4.0997 C.3       1 <0>         0.0169
     33 C25         1.0246   -1.1902    1.1688 C.3       1 <0>        -0.1039
     34 C26        -1.2418   -0.7314    0.2236 C.3       1 <0>        -0.1607
     35 H1          1.4485    1.4103    0.4687 H         1 <0>         0.0655
     36 H2         -0.1674    1.7372   -0.2024 H         1 <0>         0.0717
     37 H3          0.0136    1.3174    1.5179 H         1 <0>         0.0909
     38 H4          0.2043   -0.9432   -1.8977 H         1 <0>         0.4238
     39 H5          6.1175    2.0646   -3.1806 H         1 <0>         0.4201
     40 H6          5.0049    3.0183   -7.0286 H         1 <0>         0.1059
     41 H7          6.2457    1.8961   -6.4328 H         1 <0>         0.1024
     42 H8          2.5523   -0.8530   -4.1021 H         1 <0>         0.1314
     43 H9          4.0665    1.1734   -8.3474 H         1 <0>         0.1553
     44 H10         3.8946   -0.2539   -9.8632 H         1 <0>         0.0643
     45 H11         2.3445   -0.5877  -10.6718 H         1 <0>         0.1136
     46 H12         2.5702    0.9318   -9.7726 H         1 <0>         0.0643
     47 H13         1.9611   -2.8291   -4.4739 H         1 <0>         0.0570
     48 H14         0.6336   -1.6467   -4.3853 H         1 <0>         0.0421
     49 H15         0.3634   -3.2328   -5.1466 H         1 <0>         0.1180
     50 H16         7.4105    3.3995   -4.9705 H         1 <0>         0.0729
     51 H17         6.4282    4.7142   -5.6594 H         1 <0>         0.0886
     52 H18         6.5217    4.5041   -3.8943 H         1 <0>         0.0748
     53 H19         4.0185    4.3914   -3.7822 H         1 <0>         0.0713
     54 H20         3.9349    4.6019   -5.5477 H         1 <0>         0.0828
     55 H21         3.1399    3.2071   -4.7791 H         1 <0>         0.0551
     56 H22         2.9692   -1.6305    2.9602 H         1 <0>         0.1553
     57 H23         4.8122   -0.1843   -1.3897 H         1 <0>         0.1820
     58 H24         6.7459   -0.9684   -1.5916 H         1 <0>         0.0534
     59 H25         6.6689    0.7291   -1.0615 H         1 <0>         0.0557
     60 H26         8.1632   -0.2094   -0.8277 H         1 <0>         0.1105
     61 H27         4.3118   -1.1001    4.4623 H         1 <0>         0.0647
     62 H28         4.3936   -2.7981    3.9347 H         1 <0>         0.0643
     63 H29         5.7485   -2.0809    4.8393 H         1 <0>         0.1132
     64 H30         0.7690   -0.8757    2.1806 H         1 <0>         0.1128
     65 H31         0.7551   -2.2388    1.0423 H         1 <0>         0.1053
     66 H32        -1.8011   -0.1310   -0.4939 H         1 <0>         0.0755
     67 H33        -1.3517   -1.7876   -0.0226 H         1 <0>         0.0753
     68 H34        -1.6266   -0.5503    1.2272 H         1 <0>         0.0951
     69 H35         1.9699    0.2711   -3.2786 H         1 <0>         0.4090
@<TRIPOS>BOND
     1    1    2 1
     2    1   35 1
     3    1   36 1
     4    1   37 1
     5    2   33 1
     6    2    3 1
     7    2   34 1
     8    3    4 1
     9    3   38 1
    10    4    5 2
    11    4   23 1
    12    5    6 1
    13    5   69 1
    14    6    7 2
    15    7   12 1
    16    7    8 1
    17    8    9 1
    18    8   39 1
    19    9   10 1
    20    9   21 1
    21    9   22 1
    22   10   11 1
    23   10   40 1
    24   10   41 1
    25   11   16 ar
    26   11   12 ar
    27   12   13 ar
    28   13   14 ar
    29   13   42 1
    30   14   15 ar
    31   14   19 1
    32   15   16 ar
    33   15   17 1
    34   16   43 1
    35   17   18 1
    36   18   44 1
    37   18   45 1
    38   18   46 1
    39   19   20 1
    40   20   47 1
    41   20   48 1
    42   20   49 1
    43   21   50 1
    44   21   51 1
    45   21   52 1
    46   22   53 1
    47   22   54 1
    48   22   55 1
    49   23   28 ar
    50   23   24 ar
    51   24   25 ar
    52   24   33 1
    53   25   26 ar
    54   25   56 1
    55   26   27 ar
    56   26   31 1
    57   27   28 ar
    58   27   29 1
    59   28   57 1
    60   29   30 1
    61   30   58 1
    62   30   59 1
    63   30   60 1
    64   31   32 1
    65   32   61 1
    66   32   62 1
    67   32   63 1
    68   33   64 1
    69   33   65 1
    70   34   66 1
    71   34   67 1
    72   34   68 1
@<TRIPOS>MOLECULE
ZINC39669476
   72    76     0     0     0
SMALL
USER_CHARGES

@<TRIPOS>ATOM
      1 C1         -2.1456    0.4603    0.6268 C.3       1 <0>        -0.1183
      2 C2         -1.0211   -0.4898    0.3043 C.ar      1 <0>        -0.0416
      3 C3         -1.0617   -1.2411   -0.8523 C.ar      1 <0>        -0.0891
      4 C4         -0.0309   -2.1134   -1.1511 C.ar      1 <0>        -0.1216
      5 C5          1.0489   -2.2394   -0.2915 C.ar      1 <0>         0.0942
      6 C6          1.1006   -1.4927    0.8700 C.ar      1 <0>        -0.1267
      7 C7          0.0655   -0.6067    1.1722 C.ar      1 <0>        -0.1095
      8 C8          0.1170    0.2004    2.4099 C.2       1 <0>         0.5955
      9 O1         -0.0245    1.4065    2.3554 O.2       1 <0>        -0.5143
     10 N1          0.3208   -0.4011    3.5987 N.am      1 <0>        -0.6182
     11 C9          0.6012   -1.8334    3.8557 C.3       1 <0>         0.1039
     12 C10         1.6558   -1.8282    4.9850 C.3       1 <0>        -0.1145
     13 H1          2.6601   -1.8958    4.5667 H         1 <0>         0.1114
     14 C11         1.4619   -0.4788    5.6968 C.3       1 <0>        -0.0711
     15 C12         0.3217    0.2219    4.9440 C.3       1 <0>         0.1084
     16 C13         2.7365    0.3547    5.6056 C.3       1 <0>        -0.1350
     17 C14         2.5382    1.6671    6.3691 C.3       1 <0>        -0.0110
     18 N2          2.2194    1.3757    7.7721 N.4       1 <0>        -0.5047
     19 C15         0.9441    0.6539    7.8565 C.3       1 <0>        -0.0080
     20 C16         1.0748   -0.7013    7.1556 C.3       1 <0>        -0.1461
     21 C17         1.4081   -2.9679    5.9394 C.2       1 <0>         0.5203
     22 O2          0.2735   -3.3250    6.1760 O.2       1 <0>        -0.5207
     23 N3          2.4475   -3.5903    6.5299 N.am      1 <0>        -0.7260
     24 C18         2.2068   -4.6982    7.4577 C.3       1 <0>         0.1239
     25 C19         3.5444   -5.2232    7.9831 C.3       1 <0>        -0.1128
     26 H2          4.1095   -4.4022    8.4243 H         1 <0>         0.0792
     27 C20         3.2906   -6.2967    9.0439 C.3       1 <0>        -0.1146
     28 C21         4.6275   -6.7993    9.5936 C.3       1 <0>        -0.1335
     29 C22         5.4396   -7.4262    8.4560 C.3       1 <0>         0.1221
     30 N4          5.5644   -6.4463    7.3683 N.pl3     1 <0>        -0.5840
     31 C23         4.3445   -5.8316    6.8271 C.3       1 <0>         0.1316
     32 C24         6.8077   -6.1081    6.8630 C.ar      1 <0>         0.5637
     33 N5          6.8882   -5.2172    5.8857 N.ar      1 <0>        -0.5775
     34 C25         8.0608   -4.8714    5.3808 C.ar      1 <0>         0.1907
     35 C26         9.2127   -5.4533    5.8864 C.ar      1 <0>        -0.2910
     36 C27         9.0925   -6.3816    6.9086 C.ar      1 <0>         0.1969
     37 N6          7.8897   -6.6790    7.3719 N.ar      1 <0>        -0.5689
     38 F1          2.0522   -3.0937   -0.5894 F         1 <0>        -0.1321
     39 H3         -1.8884    1.4600    0.2768 H         1 <0>         0.0857
     40 H4         -3.0573    0.1254    0.1320 H         1 <0>         0.0756
     41 H5         -2.3045    0.4825    1.7050 H         1 <0>         0.0656
     42 H6         -1.9007   -1.1479   -1.5259 H         1 <0>         0.1459
     43 H7         -0.0677   -2.6990   -2.0578 H         1 <0>         0.1461
     44 H8          1.9419   -1.5912    1.5400 H         1 <0>         0.1383
     45 H9         -0.3038   -2.3449    4.1832 H         1 <0>         0.1014
     46 H10         1.0046   -2.3081    2.9612 H         1 <0>         0.0979
     47 H11         0.5179    1.2914    4.8679 H         1 <0>         0.0913
     48 H12        -0.6290    0.0434    5.4465 H         1 <0>         0.0872
     49 H13         3.5661   -0.1998    6.0443 H         1 <0>         0.0968
     50 H14         2.9555    0.5714    4.5600 H         1 <0>         0.1182
     51 H15         3.4530    2.2578    6.3197 H         1 <0>         0.1399
     52 H16         1.7190    2.2285    5.9197 H         1 <0>         0.1346
     53 H17         2.9523    0.8087    8.1713 H         1 <0>         0.4275
     54 H18         0.6839    0.4977    8.9034 H         1 <0>         0.1393
     55 H19         0.1627    1.2394    7.3719 H         1 <0>         0.1336
     56 H20         0.1222   -1.2288    7.2029 H         1 <0>         0.1293
     57 H21         1.8446   -1.2939    7.6500 H         1 <0>         0.0956
     58 H22         3.3550   -3.3047    6.3406 H         1 <0>         0.4024
     59 H23         1.6007   -4.3474    8.2930 H         1 <0>         0.0765
     60 H24         1.6807   -5.4992    6.9383 H         1 <0>         0.0780
     61 H25         2.7005   -5.8723    9.8561 H         1 <0>         0.0710
     62 H26         2.7464   -7.1283    8.5961 H         1 <0>         0.0725
     63 H27         5.1829   -5.9636   10.0195 H         1 <0>         0.0659
     64 H28         4.4455   -7.5469   10.3656 H         1 <0>         0.0835
     65 H29         6.4309   -7.6960    8.8202 H         1 <0>         0.1020
     66 H30         4.9281   -8.3161    8.0892 H         1 <0>         0.0682
     67 H31         3.7439   -6.5914    6.3270 H         1 <0>         0.0682
     68 H32         4.6130   -5.0493    6.1170 H         1 <0>         0.0954
     69 H33         8.1200   -4.1448    4.5840 H         1 <0>         0.1663
     70 H34        10.1830   -5.1894    5.4921 H         1 <0>         0.1458
     71 H35         9.9704   -6.8536    7.3244 H         1 <0>         0.1693
     72 H36         2.1493    2.2410    8.2864 H         1 <0>         0.4343
@<TRIPOS>BOND
     1    1    2 1
     2    1   39 1
     3    1   40 1
     4    1   41 1
     5    2    7 ar
     6    2    3 ar
     7    3    4 ar
     8    3   42 1
     9    4    5 ar
    10    4   43 1
    11    5    6 ar
    12    5   38 1
    13    6    7 ar
    14    6   44 1
    15    7    8 1
    16    8    9 2
    17    8   10 am
    18   10   15 1
    19   10   11 1
    20   11   12 1
    21   11   45 1
    22   11   46 1
    23   12   13 1
    24   12   14 1
    25   12   21 1
    26   14   20 1
    27   14   15 1
    28   14   16 1
    29   15   47 1
    30   15   48 1
    31   16   17 1
    32   16   49 1
    33   16   50 1
    34   17   18 1
    35   17   51 1
    36   17   52 1
    37   18   19 1
    38   18   53 1
    39   18   72 1
    40   19   20 1
    41   19   54 1
    42   19   55 1
    43   20   56 1
    44   20   57 1
    45   21   22 2
    46   21   23 am
    47   23   24 1
    48   23   58 1
    49   24   25 1
    50   24   59 1
    51   24   60 1
    52   25   26 1
    53   25   31 1
    54   25   27 1
    55   27   28 1
    56   27   61 1
    57   27   62 1
    58   28   29 1
    59   28   63 1
    60   28   64 1
    61   29   30 1
    62   29   65 1
    63   29   66 1
    64   30   31 1
    65   30   32 1
    66   31   67 1
    67   31   68 1
    68   32   37 ar
    69   32   33 ar
    70   33   34 ar
    71   34   35 ar
    72   34   69 1
    73   35   36 ar
    74   35   70 1
    75   36   37 ar
    76   36   71 1
@<TRIPOS>MOLECULE
ZINC39681871
   70    73     0     0     0
SMALL
USER_CHARGES

@<TRIPOS>ATOM
      1 C1         -1.6942   -0.1253    2.8203 C.ar      1 <0>        -0.1055
      2 C2         -0.7993    0.9282    2.8052 C.ar      1 <0>        -0.1227
      3 C3          0.4799    0.7414    2.3158 C.ar      1 <0>        -0.0939
      4 C4          0.8644   -0.4990    1.8418 C.ar      1 <0>        -0.1030
      5 C5         -0.0302   -1.5527    1.8578 C.ar      1 <0>        -0.0933
      6 C6         -1.3099   -1.3655    2.3459 C.ar      1 <0>        -0.1222
      7 C7          2.2587   -0.7023    1.3073 C.3       1 <0>         0.1287
      8 O1          3.1225   -1.1066    2.3715 O.3       1 <0>        -0.3564
      9 C8          4.4128   -1.3313    2.0595 C.2       1 <0>         0.6521
     10 O2          4.7950   -1.1880    0.9150 O.2       1 <0>        -0.5670
     11 N1          5.2806   -1.7151    3.0167 N.am      1 <0>        -0.5970
     12 C9          4.8321   -1.8985    4.4037 C.3       1 <0>         0.1124
     13 C10         5.7259   -1.0629    5.3255 C.3       1 <0>        -0.1195
     14 C11         7.1905   -1.4352    5.0840 C.3       1 <0>        -0.1035
     15 C12         7.5658   -1.1223    3.6337 C.3       1 <0>        -0.1216
     16 C13         6.6916   -1.9640    2.6917 C.3       1 <0>         0.1290
     17 C14         8.0706   -0.6395    6.0132 C.2       1 <0>         0.5481
     18 O3          7.7692    0.4976    6.3084 O.2       1 <0>        -0.5240
     19 N2          9.1926   -1.1914    6.5161 N.am      1 <0>        -0.6247
     20 C15         9.7820   -2.5107    6.1873 C.3       1 <0>         0.1086
     21 C16        11.3063   -2.2597    6.1529 C.3       1 <0>        -0.1128
     22 H1         11.6357   -2.0636    5.1326 H         1 <0>         0.1146
     23 C17        11.5191   -1.0163    7.0326 C.3       1 <0>        -0.0730
     24 C18        10.1194   -0.6130    7.5184 C.3       1 <0>         0.1060
     25 C19        12.1315    0.1139    6.2108 C.3       1 <0>        -0.1338
     26 C20        12.3864    1.3195    7.1199 C.3       1 <0>        -0.0115
     27 N3         13.2928    0.9315    8.2075 N.4       1 <0>        -0.5045
     28 C21        12.6578   -0.0907    9.0481 C.3       1 <0>        -0.0076
     29 C22        12.4141   -1.3558    8.2205 C.3       1 <0>        -0.1474
     30 C23        12.0458   -3.4421    6.7239 C.2       1 <0>         0.5219
     31 O4         11.4985   -4.1710    7.5239 O.2       1 <0>        -0.5131
     32 N4         13.3155   -3.6895    6.3455 N.am      1 <0>        -0.7282
     33 C24        14.0344   -4.8390    6.9005 C.3       1 <0>         0.0820
     34 C25        15.4451   -4.8915    6.3106 C.3       1 <0>         0.0553
     35 F1         16.1317   -5.9892    6.8407 F         1 <0>        -0.1994
     36 H2         -2.6922    0.0195    3.2069 H         1 <0>         0.1264
     37 H3         -1.0996    1.8972    3.1755 H         1 <0>         0.1267
     38 H4          1.1789    1.5646    2.3033 H         1 <0>         0.1238
     39 H5          0.2700   -2.5216    1.4872 H         1 <0>         0.1247
     40 H6         -2.0090   -2.1886    2.3580 H         1 <0>         0.1273
     41 H7          2.2439   -1.4745    0.5381 H         1 <0>         0.0792
     42 H8          2.6230    0.2311    0.8783 H         1 <0>         0.0785
     43 H9          3.7978   -1.5684    4.5000 H         1 <0>         0.1018
     44 H10         4.9087   -2.9511    4.6764 H         1 <0>         0.0756
     45 H11         5.5797   -0.0040    5.1119 H         1 <0>         0.0840
     46 H12         5.4659   -1.2642    6.3647 H         1 <0>         0.0832
     47 H13         7.3308   -2.4993    5.2739 H         1 <0>         0.0964
     48 H14         7.4022   -0.0629    3.4361 H         1 <0>         0.0805
     49 H15         8.6153   -1.3658    3.4688 H         1 <0>         0.0801
     50 H16         6.9168   -3.0218    2.8276 H         1 <0>         0.0774
     51 H17         6.8846   -1.6771    1.6580 H         1 <0>         0.1047
     52 H18         9.5344   -3.2404    6.9583 H         1 <0>         0.1021
     53 H19         9.4310   -2.8517    5.2133 H         1 <0>         0.0956
     54 H20        10.0242    0.4725    7.5427 H         1 <0>         0.0899
     55 H21         9.9251   -1.0351    8.5044 H         1 <0>         0.0845
     56 H22        13.0740   -0.2207    5.7774 H         1 <0>         0.0960
     57 H23        11.4444    0.3979    5.4138 H         1 <0>         0.1187
     58 H24        12.8392    2.1230    6.5390 H         1 <0>         0.1404
     59 H25        11.4413    1.6636    7.5402 H         1 <0>         0.1345
     60 H26        14.1459    0.5610    7.8164 H         1 <0>         0.4273
     61 H27        13.3108   -0.3267    9.8884 H         1 <0>         0.1399
     62 H28        11.7064    0.2870    9.4227 H         1 <0>         0.1338
     63 H29        11.9262   -2.1079    8.8405 H         1 <0>         0.1252
     64 H30        13.3667   -1.7435    7.8593 H         1 <0>         0.0966
     65 H31        13.7533   -3.1065    5.7057 H         1 <0>         0.4023
     66 H32        14.0972   -4.7395    7.9842 H         1 <0>         0.0843
     67 H33        13.5015   -5.7563    6.6502 H         1 <0>         0.0875
     68 H34        15.3823   -4.9910    5.2270 H         1 <0>         0.0840
     69 H35        15.9780   -3.9742    6.5610 H         1 <0>         0.0786
     70 H36        13.5075    1.7414    8.7696 H         1 <0>         0.4351
@<TRIPOS>BOND
     1    1    6 ar
     2    1    2 ar
     3    1   36 1
     4    2    3 ar
     5    2   37 1
     6    3    4 ar
     7    3   38 1
     8    4    5 ar
     9    4    7 1
    10    5    6 ar
    11    5   39 1
    12    6   40 1
    13    7    8 1
    14    7   41 1
    15    7   42 1
    16    8    9 1
    17    9   10 2
    18    9   11 am
    19   11   16 1
    20   11   12 1
    21   12   13 1
    22   12   43 1
    23   12   44 1
    24   13   14 1
    25   13   45 1
    26   13   46 1
    27   14   15 1
    28   14   17 1
    29   14   47 1
    30   15   16 1
    31   15   48 1
    32   15   49 1
    33   16   50 1
    34   16   51 1
    35   17   18 2
    36   17   19 am
    37   19   24 1
    38   19   20 1
    39   20   21 1
    40   20   52 1
    41   20   53 1
    42   21   22 1
    43   21   23 1
    44   21   30 1
    45   23   29 1
    46   23   24 1
    47   23   25 1
    48   24   54 1
    49   24   55 1
    50   25   26 1
    51   25   56 1
    52   25   57 1
    53   26   27 1
    54   26   58 1
    55   26   59 1
    56   27   28 1
    57   27   60 1
    58   27   70 1
    59   28   29 1
    60   28   61 1
    61   28   62 1
    62   29   63 1
    63   29   64 1
    64   30   31 2
    65   30   32 am
    66   32   33 1
    67   32   65 1
    68   33   34 1
    69   33   66 1
    70   33   67 1
    71   34   35 1
    72   34   68 1
    73   34   69 1
@<TRIPOS>MOLECULE
ZINC63375519
   60    64     0     0     0
SMALL
USER_CHARGES

@<TRIPOS>ATOM
      1 C1         -1.0876    1.9096    0.8055 C.3       1 <0>        -0.1620
      2 C2         -0.1046    0.8100    0.3986 C.3       1 <0>         0.1312
      3 H1         -0.6509   -0.0139   -0.0607 H         1 <0>         0.1181
      4 C3          0.8899    1.3652   -0.5882 C.2       1 <0>         0.5125
      5 O1          2.0740    1.3564   -0.3258 O.2       1 <0>        -0.5399
      6 N1          0.4635    1.8716   -1.7622 N.am      1 <0>        -0.7152
      7 C4          1.4303    2.4114   -2.7214 C.3       1 <0>         0.1215
      8 C5          0.6903    2.9182   -3.9609 C.3       1 <0>         0.0447
      9 O2         -0.1416    4.0227   -3.6006 O.3       1 <0>        -0.3912
     10 C6         -0.8810    4.5739   -4.6922 C.3       1 <0>         0.0296
     11 N2          0.6039    0.3247    1.5854 N.am      1 <0>        -0.7014
     12 C7          0.0512   -0.6335    2.3554 C.2       1 <0>         0.5190
     13 O3         -1.0328   -1.0939    2.0658 O.2       1 <0>        -0.4893
     14 C8          0.7801   -1.1327    3.5763 C.3       1 <0>         0.1543
     15 H2          1.6488   -0.5029    3.7681 H         1 <0>         0.1143
     16 C9          1.2340   -2.5882    3.3506 C.3       1 <0>        -0.0930
     17 C10         1.5558   -3.1665    4.7064 C.2       1 <0>         0.0620
     18 C11         2.6495   -3.7762    5.1519 C.ar      1 <0>        -0.1565
     19 C12         3.8850   -4.1903    4.4678 C.ar      1 <0>         0.0011
     20 C13         4.8290   -4.7855    5.2440 C.ar      1 <0>        -0.1573
     21 C14         4.6690   -5.0071    6.6154 C.ar      1 <0>         0.0590
     22 C15         3.5627   -4.6670    7.3238 C.ar      1 <0>        -0.2083
     23 C16         2.4965   -4.0409    6.6145 C.ar      1 <0>         0.3373
     24 N3          1.3329   -3.6368    7.0294 N.pl3     1 <0>        -0.5747
     25 C17         0.5860   -3.1176    5.8816 C.3       1 <0>         0.0837
     26 H3         -0.2948   -3.7285    5.6842 H         1 <0>         0.1826
     27 C18         0.2086   -1.6445    6.0732 C.3       1 <0>         0.1983
     28 H4          1.0354   -1.0921    6.5196 H         1 <0>         0.1243
     29 N4         -0.1197   -1.1008    4.7369 N.am      1 <0>        -0.6179
     30 C19        -1.3654   -0.5937    4.7716 C.2       1 <0>         0.5629
     31 O4         -1.9002    0.0019    3.8569 O.2       1 <0>        -0.4564
     32 C20        -1.9833   -0.8635    6.0712 C.ar      1 <0>        -0.1503
     33 C21        -1.0233   -1.5134    6.9087 C.ar      1 <0>        -0.1183
     34 C22        -1.2996   -1.8958    8.2025 C.ar      1 <0>        -0.0867
     35 C23        -2.5736   -1.6127    8.6868 C.ar      1 <0>        -0.0873
     36 C24        -3.5220   -0.9768    7.9110 C.ar      1 <0>        -0.1070
     37 C25        -3.2654   -0.5789    6.5485 C.ar      1 <0>        -0.0192
     38 H5         -0.5413    2.7335    1.2648 H         1 <0>         0.0642
     39 H6         -1.6148    2.2707   -0.0776 H         1 <0>         0.0751
     40 H7         -1.8069    1.5080    1.5192 H         1 <0>         0.0837
     41 H8         -0.4835    1.8786   -1.9720 H         1 <0>         0.4080
     42 H9          1.9766    3.2352   -2.2622 H         1 <0>         0.0813
     43 H10         2.1306    1.6280   -3.0113 H         1 <0>         0.0873
     44 H11         1.4140    3.2378   -4.7107 H         1 <0>         0.0717
     45 H12         0.0741    2.1171   -4.3691 H         1 <0>         0.0592
     46 H13        -0.1899    4.9279   -5.4571 H         1 <0>         0.0454
     47 H14        -1.5298    3.8072   -5.1155 H         1 <0>         0.0442
     48 H15        -1.4872    5.4071   -4.3365 H         1 <0>         0.0900
     49 H16         1.4709    0.6930    1.8171 H         1 <0>         0.4109
     50 H17         0.4318   -3.1595    2.8836 H         1 <0>         0.1383
     51 H18         2.1217   -2.6068    2.7184 H         1 <0>         0.1324
     52 H19         4.0331   -4.0308    3.4099 H         1 <0>         0.1717
     53 H20         5.7498   -5.1032    4.7778 H         1 <0>         0.1568
     54 H21         5.4808   -5.4815    7.1468 H         1 <0>         0.1594
     55 H22         3.4926   -4.8633    8.3835 H         1 <0>         0.1705
     56 H23        -0.5613   -2.3934    8.8137 H         1 <0>         0.1335
     57 H24        -2.8270   -1.8986    9.6970 H         1 <0>         0.1407
     58 H25        -4.4961   -0.7768    8.3323 H         1 <0>         0.1414
     59 H26        -3.9982   -0.0754    5.9353 H         1 <0>         0.1560
     60 H27         1.0131   -3.6734    7.9444 H         1 <0>         0.4544
@<TRIPOS>BOND
     1    1    2 1
     2    1   38 1
     3    1   39 1
     4    1   40 1
     5    2    3 1
     6    2    4 1
     7    2   11 1
     8    4    5 2
     9    4    6 am
    10    6    7 1
    11    6   41 1
    12    7    8 1
    13    7   42 1
    14    7   43 1
    15    8    9 1
    16    8   44 1
    17    8   45 1
    18    9   10 1
    19   10   46 1
    20   10   47 1
    21   10   48 1
    22   11   12 am
    23   11   49 1
    24   12   13 2
    25   12   14 1
    26   14   15 1
    27   14   29 1
    28   14   16 1
    29   16   17 1
    30   16   50 1
    31   16   51 1
    32   17   25 1
    33   17   18 2
    34   18   23 ar
    35   18   19 ar
    36   19   20 ar
    37   19   52 1
    38   20   21 ar
    39   20   53 1
    40   21   22 ar
    41   21   54 1
    42   22   23 ar
    43   22   55 1
    44   23   24 2
    45   24   25 1
    46   24   60 1
    47   25   26 1
    48   25   27 1
    49   27   28 1
    50   27   33 1
    51   27   29 1
    52   29   30 am
    53   30   31 2
    54   30   32 1
    55   32   37 ar
    56   32   33 ar
    57   33   34 ar
    58   34   35 ar
    59   34   56 1
    60   35   36 ar
    61   35   57 1
    62   36   37 ar
    63   36   58 1
    64   37   59 1
@<TRIPOS>MOLECULE
ZINC03377133
   52    54     0     0     0
SMALL
USER_CHARGES
2-[[1-(p-tolylsulfonyl)-4-piperidyl]carbonylaminoiminomethyl]benzoic acid
@<TRIPOS>ATOM
      1 C1          4.4726   -3.6072   -7.9824 C.3       1 <0>        -0.1256
      2 C2          5.4826   -3.6499   -6.8648 C.ar      1 <0>        -0.0286
      3 C3          6.4914   -2.7065   -6.8085 C.ar      1 <0>        -0.1417
      4 C4          7.4179   -2.7458   -5.7833 C.ar      1 <0>        -0.0156
      5 C5          7.3350   -3.7278   -4.8140 C.ar      1 <0>        -0.6839
      6 C6          6.3290   -4.6741   -4.8730 C.ar      1 <0>        -0.0153
      7 C7          5.4000   -4.6323   -5.8958 C.ar      1 <0>        -0.1417
      8 S1          8.5159   -3.7778   -3.5072 S.o2      1 <0>         2.6918
      9 O1          9.6787   -3.1153   -3.9850 O.2       1 <0>        -0.9553
     10 O2          8.5425   -5.1177   -3.0348 O.2       1 <0>        -0.9560
     11 N1          7.9179   -2.8520   -2.2712 N.pl3     1 <0>        -0.9967
     12 C8          7.0709   -3.4499   -1.2302 C.3       1 <0>         0.1208
     13 C9          5.7699   -2.6471   -1.1318 C.3       1 <0>        -0.1148
     14 C10         6.1021   -1.1711   -0.9009 C.3       1 <0>        -0.0990
     15 C11         6.9108   -0.6371   -2.0853 C.3       1 <0>        -0.1322
     16 C12         8.2247   -1.4171   -2.1946 C.3       1 <0>         0.1228
     17 C13         4.8241   -0.3834   -0.7696 C.2       1 <0>         0.5329
     18 O3          3.7532   -0.9468   -0.8525 O.2       1 <0>        -0.5148
     19 N2          4.8711    0.9472   -0.5600 N.am      1 <0>        -0.5817
     20 N3          3.6830    1.6795   -0.4380 N.2       1 <0>        -0.2702
     21 C14         3.7283    2.9617   -0.2360 C.2       1 <0>         0.1172
     22 C15         2.4800    3.7310   -0.1078 C.ar      1 <0>        -0.0334
     23 C16         1.2485    3.0743   -0.0863 C.ar      1 <0>        -0.0968
     24 C17         0.0821    3.8004    0.0345 C.ar      1 <0>        -0.1313
     25 C18         0.1213    5.1822    0.1352 C.ar      1 <0>        -0.1215
     26 C19         1.3275    5.8509    0.1220 C.ar      1 <0>        -0.0844
     27 C20         2.5196    5.1369   -0.0052 C.ar      1 <0>        -0.0858
     28 C21         3.8114    5.8467   -0.0262 C.2       1 <0>         0.4940
     29 O4          4.8507    5.2171   -0.0272 O.co2     1 <0>        -0.6275
     30 H1          4.8310   -4.2067   -8.8192 H         1 <0>         0.0787
     31 H2          3.5225   -4.0079   -7.6291 H         1 <0>         0.0732
     32 H3          4.3337   -2.5760   -8.3074 H         1 <0>         0.0735
     33 H4          6.5560   -1.9391   -7.5656 H         1 <0>         0.1326
     34 H5          8.2063   -2.0089   -5.7394 H         1 <0>         0.1392
     35 H6          6.2669   -5.4440   -4.1181 H         1 <0>         0.1391
     36 H7          4.6116   -5.3691   -5.9396 H         1 <0>         0.1323
     37 H8          7.5920   -3.4199   -0.2733 H         1 <0>         0.0805
     38 H9          6.8437   -4.4831   -1.4927 H         1 <0>         0.0950
     39 H10         5.1740   -3.0205   -0.2989 H         1 <0>         0.0874
     40 H11         5.2064   -2.7524   -2.0589 H         1 <0>         0.0769
     41 H12         6.6870   -1.0693    0.0133 H         1 <0>         0.1045
     42 H13         6.3365   -0.7614   -3.0035 H         1 <0>         0.0766
     43 H14         7.1270    0.4200   -1.9312 H         1 <0>         0.0852
     44 H15         8.8399   -1.2214   -1.3163 H         1 <0>         0.0832
     45 H16         8.7589   -1.1091   -3.0934 H         1 <0>         0.0961
     46 H17         5.7275    1.3977   -0.4937 H         1 <0>         0.3822
     47 H18         4.6818    3.4633   -0.1621 H         1 <0>         0.1775
     48 H19         1.2089    1.9979   -0.1640 H         1 <0>         0.1288
     49 H20        -0.8687    3.2885    0.0510 H         1 <0>         0.1182
     50 H21        -0.7993    5.7390    0.2294 H         1 <0>         0.1192
     51 H22         1.3490    6.9275    0.2056 H         1 <0>         0.1351
     52 O5          3.8398    7.1940   -0.0442 O.co2     1 <0>        -0.7409
@<TRIPOS>BOND
     1    1    2 1
     2    1   30 1
     3    1   31 1
     4    1   32 1
     5    2    7 ar
     6    2    3 ar
     7    3    4 ar
     8    3   33 1
     9    4    5 ar
    10    4   34 1
    11    5    6 ar
    12    5    8 1
    13    6    7 ar
    14    6   35 1
    15    7   36 1
    16    8    9 2
    17    8   10 2
    18    8   11 1
    19   11   16 1
    20   11   12 1
    21   12   13 1
    22   12   37 1
    23   12   38 1
    24   13   14 1
    25   13   39 1
    26   13   40 1
    27   14   15 1
    28   14   17 1
    29   14   41 1
    30   15   16 1
    31   15   42 1
    32   15   43 1
    33   16   44 1
    34   16   45 1
    35   17   18 2
    36   17   19 am
    37   19   20 1
    38   19   46 1
    39   20   21 2
    40   21   22 1
    41   21   47 1
    42   22   27 ar
    43   22   23 ar
    44   23   24 ar
    45   23   48 1
    46   24   25 ar
    47   24   49 1
    48   25   26 ar
    49   25   50 1
    50   26   27 ar
    51   26   51 1
    52   27   28 1
    53   28   29 2
    54   28   52 1
@<TRIPOS>MOLECULE
ZINC13077005
   47    49     0     0     0
SMALL
USER_CHARGES
2-chloro-5-[[(2R)-2-(propylcarbamoyl)-2,3-dihydro-1,4-benzoxazin-4-yl]sulfonyl]benzoic acid
@<TRIPOS>ATOM
      1 C1         10.2431    3.8923   -4.0394 C.3       1 <0>        -0.1498
      2 C2          9.4183    2.8968   -3.2212 C.3       1 <0>        -0.1380
      3 C3          8.5990    2.0152   -4.1659 C.3       1 <0>         0.1189
      4 N1          7.8093    1.0620   -3.3824 N.am      1 <0>        -0.7280
      5 C4          7.0056    0.1786   -4.0071 C.2       1 <0>         0.5264
      6 O1          6.9362    0.1729   -5.2179 O.2       1 <0>        -0.5054
      7 C5          6.1932   -0.8019   -3.2011 C.3       1 <0>         0.0670
      8 H1          6.8510   -1.3730   -2.5460 H         1 <0>         0.1068
      9 C6          5.1593   -0.0427   -2.3574 C.3       1 <0>         0.0810
     10 N2          4.3606   -1.0420   -1.6272 N.pl3     1 <0>        -0.9384
     11 C7          3.9671   -2.1969   -2.3217 C.ar      1 <0>         0.0945
     12 C8          2.9879   -3.0245   -1.7923 C.ar      1 <0>        -0.1282
     13 C9          2.6007   -4.1598   -2.4804 C.ar      1 <0>        -0.1035
     14 C10         3.1849   -4.4662   -3.6954 C.ar      1 <0>        -0.1065
     15 C11         4.1567   -3.6409   -4.2298 C.ar      1 <0>        -0.1184
     16 C12         4.5502   -2.4995   -3.5479 C.ar      1 <0>         0.0939
     17 O2          5.5042   -1.6920   -4.0825 O.3       1 <0>        -0.2818
     18 S1          3.9469   -0.8142   -0.0400 S.o2      1 <0>         2.6924
     19 O3          4.9088    0.0776    0.5065 O.2       1 <0>        -0.9487
     20 O4          3.7068   -2.1039    0.5062 O.2       1 <0>        -0.9316
     21 C13         2.4037    0.0361   -0.0207 C.ar      1 <0>        -0.6976
     22 C14         2.3783    1.4201   -0.0135 C.ar      1 <0>        -0.0167
     23 C15         1.1723    2.0963    0.0021 C.ar      1 <0>        -0.1489
     24 C16        -0.0169    1.3933    0.0097 C.ar      1 <0>         0.0479
     25 C17         0.0021   -0.0041    0.0020 C.ar      1 <0>        -0.1250
     26 C18         1.2248   -0.6791   -0.0133 C.ar      1 <0>         0.0353
     27 C19        -1.2643   -0.7632    0.0105 C.2       1 <0>         0.4859
     28 O5         -2.3261   -0.1732    0.0242 O.co2     1 <0>        -0.6003
     29 Cl1        -1.5305    2.2433    0.0215 Cl        1 <0>        -0.0263
     30 H2         10.9152    3.3484   -4.7031 H         1 <0>         0.0577
     31 H3          9.5749    4.5174   -4.6318 H         1 <0>         0.0585
     32 H4         10.8267    4.5204   -3.3664 H         1 <0>         0.0608
     33 H5          8.7461    3.4408   -2.5575 H         1 <0>         0.0721
     34 H6         10.0865    2.2717   -2.6288 H         1 <0>         0.0706
     35 H7          9.2712    1.4712   -4.8295 H         1 <0>         0.0707
     36 H8          7.9309    2.6403   -4.7582 H         1 <0>         0.0718
     37 H9          7.8648    1.0666   -2.4140 H         1 <0>         0.4046
     38 H10         4.5114    0.5454   -3.0074 H         1 <0>         0.0993
     39 H11         5.6672    0.6132   -1.6503 H         1 <0>         0.1206
     40 H12         2.5322   -2.7855   -0.8428 H         1 <0>         0.1539
     41 H13         1.8415   -4.8078   -2.0680 H         1 <0>         0.1382
     42 H14         2.8809   -5.3545   -4.2292 H         1 <0>         0.1334
     43 H15         4.6095   -3.8852   -5.1793 H         1 <0>         0.1358
     44 H16         3.3051    1.9745   -0.0197 H         1 <0>         0.1418
     45 H17         1.1600    3.1762    0.0077 H         1 <0>         0.1402
     46 H18         1.2468   -1.7588   -0.0196 H         1 <0>         0.1559
     47 O6         -1.2422   -2.1102    0.0031 O.co2     1 <0>        -0.7429
@<TRIPOS>BOND
     1    1    2 1
     2    1   30 1
     3    1   31 1
     4    1   32 1
     5    2    3 1
     6    2   33 1
     7    2   34 1
     8    3    4 1
     9    3   35 1
    10    3   36 1
    11    4    5 am
    12    4   37 1
    13    5    6 2
    14    5    7 1
    15    7    8 1
    16    7   17 1
    17    7    9 1
    18    9   10 1
    19    9   38 1
    20    9   39 1
    21   10   11 1
    22   10   18 1
    23   11   16 ar
    24   11   12 ar
    25   12   13 ar
    26   12   40 1
    27   13   14 ar
    28   13   41 1
    29   14   15 ar
    30   14   42 1
    31   15   16 ar
    32   15   43 1
    33   16   17 1
    34   18   19 2
    35   18   20 2
    36   18   21 1
    37   21   26 ar
    38   21   22 ar
    39   22   23 ar
    40   22   44 1
    41   23   24 ar
    42   23   45 1
    43   24   25 ar
    44   24   29 1
    45   25   26 ar
    46   25   27 1
    47   26   46 1
    48   27   28 2
    49   27   47 1
@<TRIPOS>MOLECULE
ZINC13279086
   47    50     0     0     0
SMALL
USER_CHARGES
4-[5-chloro-4-[2-(5-chloro-2,3-dihydro-1,4-benzodioxin-7-yl)ethylamino]-6-oxo-pyridazin-1-yl]benzoic acid
@<TRIPOS>ATOM
      1 C1          3.5026   -3.2704   13.6095 C.ar      1 <0>        -0.0763
      2 C2          3.7996   -3.2732   12.2650 C.ar      1 <0>        -0.1045
      3 C3          2.7820   -3.1390   11.3258 C.ar      1 <0>         0.1200
      4 C4          1.4619   -2.9968   11.7413 C.ar      1 <0>        -0.1173
      5 C5          1.1570   -2.9990   13.0840 C.ar      1 <0>        -0.0705
      6 C6          2.1768   -3.1331   14.0303 C.ar      1 <0>        -0.1010
      7 C7          1.8547   -3.1293   15.4701 C.2       1 <0>         0.4887
      8 O1          2.7424   -3.2455   16.2915 O.co2     1 <0>        -0.6281
      9 N1          3.0869   -3.1413    9.9636 N.am      1 <0>        -0.3584
     10 C8          3.8861   -4.1021    9.4596 C.2       1 <0>         0.5276
     11 O2          4.3424   -4.9677   10.1904 O.2       1 <0>        -0.5097
     12 C9          4.1911   -4.1015    8.0908 C.2       1 <0>        -0.2277
     13 C10         3.6614   -3.1093    7.2856 C.2       1 <0>         0.2501
     14 C11         2.8333   -2.1203    7.8590 C.2       1 <0>         0.0491
     15 N2          2.5606   -2.1460    9.1336 N.2       1 <0>        -0.1712
     16 N3          3.9455   -3.0831    5.9305 N.pl3     1 <0>        -0.7101
     17 C12         3.3809   -2.0291    5.0839 C.3       1 <0>         0.1110
     18 C13         3.8471   -2.2299    3.6405 C.3       1 <0>        -0.0867
     19 C14         3.2663   -1.1457    2.7697 C.ar      1 <0>        -0.0678
     20 C15         3.9590    0.0362    2.5853 C.ar      1 <0>        -0.1016
     21 C16         3.4279    1.0356    1.7837 C.ar      1 <0>         0.0657
     22 C17         2.1984    0.8451    1.1647 C.ar      1 <0>         0.0588
     23 C18         1.5070   -0.3429    1.3549 C.ar      1 <0>        -0.0294
     24 C19         2.0422   -1.3351    2.1565 C.ar      1 <0>        -0.1002
     25 Cl1        -0.0306   -0.5843    0.5860 Cl        1 <0>        -0.0461
     26 O3          1.6611    1.8112    0.3703 O.3       1 <0>        -0.2949
     27 C20         2.2033    3.1295    0.5041 C.3       1 <0>         0.0188
     28 C21         3.7341    3.0212    0.5118 C.3       1 <0>         0.0191
     29 O4          4.1194    2.1960    1.6166 O.3       1 <0>        -0.3007
     30 Cl2         5.2186   -5.3278    7.4169 Cl        1 <0>        -0.0274
     31 H1          4.2931   -3.3739   14.3380 H         1 <0>         0.1362
     32 H2          4.8238   -3.3792   11.9391 H         1 <0>         0.1232
     33 H3          0.6748   -2.8887   11.0096 H         1 <0>         0.1232
     34 H4          0.1315   -2.8930   13.4057 H         1 <0>         0.1397
     35 H5          2.4198   -1.3400    7.2373 H         1 <0>         0.1990
     36 H6          4.5183   -3.7626    5.5418 H         1 <0>         0.4114
     37 H7          3.7171   -1.0562    5.4423 H         1 <0>         0.0782
     38 H8          2.2926   -2.0749    5.1239 H         1 <0>         0.0786
     39 H9          3.5109   -3.2028    3.2821 H         1 <0>         0.0895
     40 H10         4.9354   -2.1841    3.6005 H         1 <0>         0.0890
     41 H11         4.9153    0.1814    3.0658 H         1 <0>         0.1435
     42 H12         1.5029   -2.2592    2.3033 H         1 <0>         0.1452
     43 H13         1.8827    3.7458   -0.3359 H         1 <0>         0.1265
     44 H14         1.8615    3.5745    1.4386 H         1 <0>         0.0821
     45 H15         4.0755    2.5705   -0.4201 H         1 <0>         0.0805
     46 H16         4.1723    4.0129    0.6233 H         1 <0>         0.1265
     47 O5          0.5762   -2.9968   15.8741 O.co2     1 <0>        -0.7518
@<TRIPOS>BOND
     1    1    6 ar
     2    1    2 ar
     3    1   31 1
     4    2    3 ar
     5    2   32 1
     6    3    4 ar
     7    3    9 1
     8    4    5 ar
     9    4   33 1
    10    5    6 ar
    11    5   34 1
    12    6    7 1
    13    7    8 2
    14    7   47 1
    15    9   15 1
    16    9   10 am
    17   10   11 2
    18   10   12 1
    19   12   13 2
    20   12   30 1
    21   13   14 1
    22   13   16 1
    23   14   15 2
    24   14   35 1
    25   16   17 1
    26   16   36 1
    27   17   18 1
    28   17   37 1
    29   17   38 1
    30   18   19 1
    31   18   39 1
    32   18   40 1
    33   19   24 ar
    34   19   20 ar
    35   20   21 ar
    36   20   41 1
    37   21   29 1
    38   21   22 ar
    39   22   23 ar
    40   22   26 1
    41   23   24 ar
    42   23   25 1
    43   24   42 1
    44   26   27 1
    45   27   28 1
    46   27   43 1
    47   27   44 1
    48   28   29 1
    49   28   45 1
    50   28   46 1
@<TRIPOS>MOLECULE
ZINC34768535
   48    51     0     0     0
SMALL
USER_CHARGES

@<TRIPOS>ATOM
      1 C1         -0.0167    1.3782    0.0096 C.ar      1 <0>        -0.0705
      2 C2          1.1703    2.0860    0.0021 C.ar      1 <0>        -0.1553
      3 C3          2.3786    1.4101   -0.0131 C.ar      1 <0>         0.1021
      4 C4          2.3962    0.0256   -0.0207 C.ar      1 <0>        -0.1558
      5 C5          1.2079   -0.6800   -0.0132 C.ar      1 <0>        -0.0711
      6 C6          0.0021   -0.0041    0.0020 C.ar      1 <0>        -0.1153
      7 C7         -1.2930   -0.7747    0.0103 C.3       1 <0>         0.1611
      8 N1         -1.7258   -1.0170   -1.3682 N.am      1 <0>        -0.7354
      9 C8         -2.8669   -1.6932   -1.6072 C.2       1 <0>         0.5214
     10 O1         -3.5354   -2.1012   -0.6811 O.2       1 <0>        -0.5373
     11 C9         -3.3122   -1.9425   -3.0252 C.3       1 <0>        -0.1268
     12 C10        -4.6270   -2.7248   -3.0168 C.3       1 <0>        -0.0128
     13 C11        -5.0723   -2.9741   -4.4348 C.ar      1 <0>        -0.0779
     14 C12        -5.8917   -2.0546   -5.0916 C.ar      1 <0>         0.4152
     15 O2         -6.3013   -0.9234   -4.4678 O.3       1 <0>        -0.6722
     16 N2         -6.2614   -2.3122   -6.3419 N.ar      1 <0>        -0.5846
     17 C13        -5.8472   -3.4219   -6.9253 C.ar      1 <0>         0.2866
     18 N3         -5.0728   -4.2769   -6.2849 N.ar      1 <0>        -0.3921
     19 N4         -4.6886   -4.0620   -5.0754 N.ar      1 <0>        -0.1974
     20 C14        -6.2654   -3.7164   -8.3428 C.3       1 <0>        -0.0019
     21 C15        -5.2550   -3.1326   -9.2963 C.ar      1 <0>        -0.0562
     22 C16        -5.4097   -1.8387   -9.7581 C.ar      1 <0>        -0.0906
     23 C17        -4.4852   -1.2985  -10.6324 C.ar      1 <0>        -0.1019
     24 C18        -3.4007   -2.0537  -11.0486 C.ar      1 <0>         0.0207
     25 C19        -3.2449   -3.3571  -10.5834 C.ar      1 <0>         0.0248
     26 C20        -4.1723   -3.8899   -9.7027 C.ar      1 <0>        -0.0827
     27 O3         -2.1121   -3.8840  -11.1332 O.3       1 <0>        -0.3102
     28 C21        -1.7987   -3.0364  -12.2542 C.3       1 <0>         0.2135
     29 O4         -2.3655   -1.7640  -11.8898 O.3       1 <0>        -0.3130
     30 F1          3.5396    2.1009   -0.0209 F         1 <0>        -0.1401
     31 H1         -0.9592    1.9052    0.0260 H         1 <0>         0.1367
     32 H2          1.1554    3.1659    0.0077 H         1 <0>         0.1371
     33 H3          3.3381   -0.5027   -0.0329 H         1 <0>         0.1369
     34 H4          1.2213   -1.7599   -0.0195 H         1 <0>         0.1361
     35 H5         -1.1453   -1.7280    0.5176 H         1 <0>         0.0770
     36 H6         -2.0553   -0.1984    0.5345 H         1 <0>         0.0772
     37 H7         -1.1912   -0.6907   -2.1089 H         1 <0>         0.4014
     38 H8         -3.4599   -0.9891   -3.5325 H         1 <0>         0.0951
     39 H9         -2.5498   -2.5187   -3.5494 H         1 <0>         0.0897
     40 H10        -4.4793   -3.6782   -2.5095 H         1 <0>         0.0705
     41 H11        -5.3893   -2.1486   -2.4925 H         1 <0>         0.0845
     42 H12        -6.3214   -4.7952   -8.4884 H         1 <0>         0.0942
     43 H13        -7.2428   -3.2730   -8.5328 H         1 <0>         0.0961
     44 H14        -6.2548   -1.2488   -9.4354 H         1 <0>         0.1436
     45 H15        -4.6085   -0.2875  -10.9916 H         1 <0>         0.1331
     46 H16        -4.0516   -4.8989   -9.3369 H         1 <0>         0.1398
     47 H17        -0.7193   -2.9527  -12.3811 H         1 <0>         0.1266
     48 H18        -2.2639   -3.4166  -13.1637 H         1 <0>         0.0801
@<TRIPOS>BOND
     1    1    6 ar
     2    1    2 ar
     3    1   31 1
     4    2    3 ar
     5    2   32 1
     6    3    4 ar
     7    3   30 1
     8    4    5 ar
     9    4   33 1
    10    5    6 ar
    11    5   34 1
    12    6    7 1
    13    7    8 1
    14    7   35 1
    15    7   36 1
    16    8    9 am
    17    8   37 1
    18    9   10 2
    19    9   11 1
    20   11   12 1
    21   11   38 1
    22   11   39 1
    23   12   13 1
    24   12   40 1
    25   12   41 1
    26   13   19 ar
    27   13   14 ar
    28   14   15 1
    29   14   16 ar
    30   16   17 ar
    31   17   18 ar
    32   17   20 1
    33   18   19 ar
    34   20   21 1
    35   20   42 1
    36   20   43 1
    37   21   26 ar
    38   21   22 ar
    39   22   23 ar
    40   22   44 1
    41   23   24 ar
    42   23   45 1
    43   24   29 1
    44   24   25 ar
    45   25   26 ar
    46   25   27 1
    47   26   46 1
    48   27   28 1
    49   28   29 1
    50   28   47 1
    51   28   48 1
@<TRIPOS>MOLECULE
ZINC13365149
   53    56     0     0     0
SMALL
USER_CHARGES

@<TRIPOS>ATOM
      1 C1         -0.0187    1.5258    0.0104 C.3       1 <0>        -0.1555
      2 C2          0.0021   -0.0041    0.0020 C.3       1 <0>        -0.0904
      3 C3          0.7182   -0.4975   -1.2568 C.3       1 <0>        -0.1467
      4 C4          0.7421   -0.5109    1.2415 C.3       1 <0>        -0.1299
      5 C5         -0.0416   -0.1236    2.4973 C.3       1 <0>         0.0852
      6 N1          0.6670   -0.6089    3.6841 N.am      1 <0>        -0.5232
      7 C6          0.4018   -1.8454    4.1664 C.2       1 <0>         0.5537
      8 O1         -0.4185   -2.5690    3.6323 O.2       1 <0>        -0.5066
      9 C7          1.1414   -2.2815    5.3585 C.ar      1 <0>        -0.2070
     10 C8          0.9410   -3.5365    5.9316 C.ar      1 <0>        -0.0365
     11 C9          1.6568   -3.8925    7.0413 C.ar      1 <0>        -0.1477
     12 C10         2.5791   -3.0181    7.6017 C.ar      1 <0>        -0.0697
     13 C11         2.7953   -1.7824    7.0605 C.ar      1 <0>        -0.1180
     14 C12         2.0793   -1.3889    5.9259 C.ar      1 <0>         0.1760
     15 N2          2.2617   -0.1792    5.3595 N.2       1 <0>        -0.5445
     16 C13         1.5947    0.1873    4.2929 C.2       1 <0>         0.3528
     17 S1          1.9036    1.7849    3.6170 S.3       1 <0>         0.1129
     18 C14         3.1732    2.4847    4.7073 C.3       1 <0>        -0.0804
     19 C15         3.5335    3.8695    4.2345 C.2       1 <0>         0.3798
     20 N3          4.4783    4.5604    4.9242 N.am      1 <0>        -0.6486
     21 H1          4.8994    4.1561    5.6989 H         1 <0>         0.4147
     22 C16         4.8379    5.8072    4.5401 C.2       1 <0>         0.5574
     23 O2          5.6829    6.4371    5.1485 O.2       1 <0>        -0.5176
     24 C17         4.1667    6.3722    3.3565 C.ar      1 <0>        -0.1961
     25 C18         4.4669    7.6474    2.8813 C.ar      1 <0>        -0.0655
     26 C19         3.8209    8.1324    1.7800 C.ar      1 <0>        -0.0888
     27 C20         2.8565    7.3585    1.1212 C.ar      1 <0>        -0.0888
     28 C21         2.5422    6.0839    1.5798 C.ar      1 <0>        -0.0639
     29 C22         3.1974    5.5788    2.7047 C.ar      1 <0>         0.1261
     30 N4          2.9290    4.3390    3.1860 N.2       1 <0>        -0.4898
     31 C23         2.1680    7.9008   -0.0691 C.2       1 <0>         0.5190
     32 O3          2.4408    9.0210   -0.4756 O.co2     1 <0>        -0.6770
     33 O4          1.3258    7.2290   -0.6471 O.co2     1 <0>        -0.6748
     34 H2          1.0039    1.9031    0.0027 H         1 <0>         0.0645
     35 H3         -0.5459    1.8868   -0.8726 H         1 <0>         0.0598
     36 H4         -0.5289    1.8773    0.9072 H         1 <0>         0.0566
     37 H5         -1.0205   -0.3814    0.0098 H         1 <0>         0.0716
     38 H6          1.7408   -0.1202   -1.2645 H         1 <0>         0.0573
     39 H7          0.7330   -1.5874   -1.2628 H         1 <0>         0.0510
     40 H8          0.1910   -0.1364   -2.1398 H         1 <0>         0.0585
     41 H9          0.8346   -1.5958    1.1912 H         1 <0>         0.0685
     42 H10         1.7350   -0.0630    1.2804 H         1 <0>         0.0763
     43 H11        -0.1341    0.9613    2.5476 H         1 <0>         0.1051
     44 H12        -1.0345   -0.5716    2.4584 H         1 <0>         0.1047
     45 H13         0.2256   -4.2225    5.5026 H         1 <0>         0.1354
     46 H14         1.5028   -4.8641    7.4870 H         1 <0>         0.1304
     47 H15         3.1333   -3.3194    8.4783 H         1 <0>         0.1317
     48 H16         3.5159   -1.1130    7.5066 H         1 <0>         0.1375
     49 H17         2.7887    2.5371    5.7259 H         1 <0>         0.1301
     50 H18         4.0599    1.8512    4.6858 H         1 <0>         0.1301
     51 H19         5.2087    8.2510    3.3830 H         1 <0>         0.1329
     52 H20         4.0552    9.1211    1.4140 H         1 <0>         0.1401
     53 H21         1.7979    5.4899    1.0705 H         1 <0>         0.1473
@<TRIPOS>BOND
     1    1    2 1
     2    1   34 1
     3    1   35 1
     4    1   36 1
     5    2    3 1
     6    2    4 1
     7    2   37 1
     8    3   38 1
     9    3   39 1
    10    3   40 1
    11    4    5 1
    12    4   41 1
    13    4   42 1
    14    5    6 1
    15    5   43 1
    16    5   44 1
    17    6   16 1
    18    6    7 am
    19    7    8 2
    20    7    9 1
    21    9   14 ar
    22    9   10 ar
    23   10   11 ar
    24   10   45 1
    25   11   12 ar
    26   11   46 1
    27   12   13 ar
    28   12   47 1
    29   13   14 ar
    30   13   48 1
    31   14   15 1
    32   15   16 2
    33   16   17 1
    34   17   18 1
    35   18   19 1
    36   18   49 1
    37   18   50 1
    38   19   30 2
    39   19   20 1
    40   20   21 1
    41   20   22 am
    42   22   23 2
    43   22   24 1
    44   24   29 ar
    45   24   25 ar
    46   25   26 ar
    47   25   51 1
    48   26   27 ar
    49   26   52 1
    50   27   28 ar
    51   27   31 1
    52   28   29 ar
    53   28   53 1
    54   29   30 1
    55   31   32 2
    56   31   33 1
@<TRIPOS>MOLECULE
ZINC01176688
   49    51     0     0     0
SMALL
USER_CHARGES
5-[[2,5-dimethyl-1-(2-methyl-4-nitro-phenyl)-pyrrol-3-yl]methylene]-1,3-dimethyl-2-thioxo-hexahydropyrimidine-4,6-dione
@<TRIPOS>ATOM
      1 C1          4.0185   -0.7814    0.2216 C.3       1 <0>        -0.1213
      2 C2          2.7562   -0.1348   -0.2878 C.ar      1 <0>        -0.0626
      3 C3          2.7067    1.2330   -0.4745 C.ar      1 <0>        -0.0488
      4 C4          1.5491    1.8269   -0.9422 C.ar      1 <0>        -0.0243
      5 C5          0.4374    1.0541   -1.2246 C.ar      1 <0>        -0.0514
      6 C6          0.4807   -0.3138   -1.0400 C.ar      1 <0>        -0.0946
      7 C7          1.6419   -0.9132   -0.5703 C.ar      1 <0>         0.1517
      8 N1          1.6888   -2.3009   -0.3815 N.pl3     1 <0>        -0.3983
      9 C8          2.0747   -3.2055   -1.3326 C.2       1 <0>         0.0150
     10 C9          2.0028   -4.4444   -0.8202 C.2       1 <0>        -0.0872
     11 C10         1.5326   -4.2945    0.5652 C.2       1 <0>        -0.2127
     12 C11         1.3659   -2.9318    0.7633 C.2       1 <0>         0.1169
     13 C12         0.9008   -2.2728    2.0363 C.3       1 <0>        -0.1037
     14 C13         1.3035   -5.3278    1.5051 C.2       1 <0>         0.1885
     15 C14         0.6307   -6.4760    1.1217 C.2       1 <0>        -0.3119
     16 C15        -0.0371   -6.5754   -0.1894 C.2       1 <0>         0.5537
     17 O1         -0.0151   -5.6458   -0.9740 O.2       1 <0>        -0.4490
     18 N2         -0.6684   -7.7272   -0.4973 N.am      1 <0>        -0.5168
     19 C16        -0.7060   -8.7566    0.3603 C.2       1 <0>         0.5325
     20 S1         -1.5381  -10.1758   -0.1135 S.2       1 <0>        -0.5248
     21 N3         -0.1267   -8.7345    1.5687 N.am      1 <0>        -0.5164
     22 C17         0.5453   -7.6508    2.0091 C.2       1 <0>         0.5614
     23 O2          1.0670   -7.6431    3.1082 O.2       1 <0>        -0.4731
     24 C18        -0.2258   -9.9143    2.4315 C.3       1 <0>         0.0587
     25 C19        -1.3348   -7.8529   -1.7959 C.3       1 <0>         0.0488
     26 C20         2.5120   -2.8650   -2.7340 C.3       1 <0>        -0.0865
     27 N4          1.4996    3.2928   -1.1416 N.pl3     1 <0>         0.0225
     28 O3          0.4806    3.8172   -1.5540 O.2       1 <0>        -0.1469
     29 O4          2.4779    3.9745   -0.8933 O.3       1 <0>        -0.1475
     30 H1          4.6515   -1.0570   -0.6219 H         1 <0>         0.0869
     31 H2          4.5526   -0.0803    0.8629 H         1 <0>         0.0841
     32 H3          3.7644   -1.6746    0.7923 H         1 <0>         0.0782
     33 H4          3.5733    1.8391   -0.2552 H         1 <0>         0.1650
     34 H5         -0.4639    1.5203   -1.5942 H         1 <0>         0.1652
     35 H6         -0.3876   -0.9168   -1.2610 H         1 <0>         0.1559
     36 H7          2.2430   -5.3683   -1.3253 H         1 <0>         0.1463
     37 H8         -0.1860   -2.1899    2.0264 H         1 <0>         0.0867
     38 H9          1.2116   -2.8735    2.8910 H         1 <0>         0.0935
     39 H10         1.3403   -1.2782    2.1121 H         1 <0>         0.0747
     40 H11         1.6534   -5.2208    2.5213 H         1 <0>         0.1544
     41 H12        -1.1172   -9.8355    3.0538 H         1 <0>         0.0877
     42 H13        -0.2913  -10.8108    1.8149 H         1 <0>         0.1206
     43 H14         0.6573   -9.9746    3.0676 H         1 <0>         0.0978
     44 H15        -1.7948   -8.8380   -1.8743 H         1 <0>         0.1358
     45 H16        -2.1031   -7.0849   -1.8859 H         1 <0>         0.0859
     46 H17        -0.6024   -7.7293   -2.5936 H         1 <0>         0.0869
     47 H18         3.5903   -2.7066   -2.7497 H         1 <0>         0.0735
     48 H19         2.2555   -3.6855   -3.4041 H         1 <0>         0.0864
     49 H20         2.0065   -1.9567   -3.0617 H         1 <0>         0.0628
@<TRIPOS>BOND
     1    1    2 1
     2    1   30 1
     3    1   31 1
     4    1   32 1
     5    2    7 ar
     6    2    3 ar
     7    3    4 ar
     8    3   33 1
     9    4    5 ar
    10    4   27 1
    11    5    6 ar
    12    5   34 1
    13    6    7 ar
    14    6   35 1
    15    7    8 1
    16    8   12 1
    17    8    9 1
    18    9   10 2
    19    9   26 1
    20   10   11 1
    21   10   36 1
    22   11   12 2
    23   11   14 1
    24   12   13 1
    25   13   37 1
    26   13   38 1
    27   13   39 1
    28   14   15 2
    29   14   40 1
    30   15   22 1
    31   15   16 1
    32   16   17 2
    33   16   18 am
    34   18   19 1
    35   18   25 1
    36   19   20 2
    37   19   21 1
    38   21   22 am
    39   21   24 1
    40   22   23 2
    41   24   41 1
    42   24   42 1
    43   24   43 1
    44   25   44 1
    45   25   45 1
    46   25   46 1
    47   26   47 1
    48   26   48 1
    49   26   49 1
    50   27   28 2
    51   27   29 1
@<TRIPOS>MOLECULE
ZINC09477758
   48    51     0     0     0
SMALL
USER_CHARGES
N-(1,1-dioxothiolan-3-yl)-2-[5-(4-fluorophenyl)-2-oxo-1,3,4-oxadiazol-3-yl]-N-phenyl-acetamide
@<TRIPOS>ATOM
      1 C1         -1.2856    3.0450    0.0149 C.ar      1 <0>        -0.1381
      2 C2         -1.2324    1.6635   -0.0141 C.ar      1 <0>        -0.0924
      3 C3         -0.0115    1.0179   -0.0187 C.ar      1 <0>        -0.1629
      4 C4          1.1636    1.7578   -0.0044 C.ar      1 <0>         0.1490
      5 C5          1.1068    3.1452    0.0198 C.ar      1 <0>        -0.1762
      6 C6         -0.1173    3.7847    0.0296 C.ar      1 <0>        -0.0929
      7 N1          2.4022    1.1069   -0.0139 N.am      1 <0>        -0.5323
      8 C7          3.6372    1.8841   -0.1430 C.3       1 <0>         0.1238
      9 H1          4.4899    1.2098   -0.2226 H         1 <0>         0.1242
     10 C8          3.8085    2.7948    1.0841 C.3       1 <0>        -0.1576
     11 C9          4.9192    3.8387    0.8157 C.3       1 <0>        -0.5752
     12 S1          4.8573    4.0334   -1.0121 S.o2      1 <0>         2.3722
     13 O1          6.0946    3.6057   -1.5647 O.2       1 <0>        -0.9231
     14 O2          4.3629    5.3287   -1.3235 O.2       1 <0>        -0.9229
     15 C10         3.5607    2.7857   -1.4082 C.3       1 <0>        -0.6160
     16 C11         2.4589   -0.2352    0.0958 C.2       1 <0>         0.5008
     17 O3          1.4360   -0.8869    0.1035 O.2       1 <0>        -0.4848
     18 C12         3.7934   -0.9262    0.2090 C.3       1 <0>         0.1372
     19 N2          3.5841   -2.3584    0.4354 N.am      1 <0>        -0.4455
     20 C13         3.4667   -3.3137   -0.5111 C.2       1 <0>         0.6186
     21 O4          3.5160   -3.1439   -1.7152 O.2       1 <0>        -0.4706
     22 O5          3.2886   -4.4863    0.1193 O.3       1 <0>        -0.2605
     23 C14         3.2856   -4.2692    1.4527 C.2       1 <0>         0.3038
     24 N3          3.4611   -2.9991    1.6772 N.2       1 <0>        -0.2522
     25 C15         3.1103   -5.3078    2.4907 C.ar      1 <0>        -0.0529
     26 C16         3.1309   -4.9582    3.8415 C.ar      1 <0>        -0.0326
     27 C17         2.9607   -5.9298    4.8055 C.ar      1 <0>        -0.1555
     28 C18         2.7819   -7.2531    4.4349 C.ar      1 <0>         0.1348
     29 C19         2.7664   -7.6065    3.0949 C.ar      1 <0>        -0.1547
     30 C20         2.9295   -6.6418    2.1229 C.ar      1 <0>        -0.0414
     31 F1          2.6217   -8.2020    5.3832 F         1 <0>        -0.1284
     32 H2         -2.2415    3.5475    0.0218 H         1 <0>         0.1248
     33 H3         -2.1466    1.0887   -0.0297 H         1 <0>         0.1271
     34 H4          0.0293   -0.0612   -0.0378 H         1 <0>         0.1802
     35 H5          2.0189    3.7234    0.0306 H         1 <0>         0.1297
     36 H6         -0.1621    4.8636    0.0484 H         1 <0>         0.1308
     37 H7          2.8693    3.3096    1.2866 H         1 <0>         0.1103
     38 H8          4.0820    2.1896    1.9485 H         1 <0>         0.1092
     39 H9          5.8910    3.4590    1.1312 H         1 <0>         0.1479
     40 H10         4.6948    4.7825    1.3127 H         1 <0>         0.1509
     41 H11         3.8149    2.2250   -2.3077 H         1 <0>         0.1548
     42 H12         2.5799    3.2522   -1.5010 H         1 <0>         0.1605
     43 H13         4.3563   -0.7826   -0.7133 H         1 <0>         0.1401
     44 H14         4.3514   -0.5040    1.0447 H         1 <0>         0.1389
     45 H15         3.2750   -3.9279    4.1315 H         1 <0>         0.1503
     46 H16         2.9717   -5.6596    5.8510 H         1 <0>         0.1504
     47 H17         2.6260   -8.6391    2.8114 H         1 <0>         0.1500
     48 H18         2.9169   -6.9182    1.0789 H         1 <0>         0.1485
@<TRIPOS>BOND
     1    1    6 ar
     2    1    2 ar
     3    1   32 1
     4    2    3 ar
     5    2   33 1
     6    3    4 ar
     7    3   34 1
     8    4    5 ar
     9    4    7 1
    10    5    6 ar
    11    5   35 1
    12    6   36 1
    13    7    8 1
    14    7   16 am
    15    8    9 1
    16    8   15 1
    17    8   10 1
    18   10   11 1
    19   10   37 1
    20   10   38 1
    21   11   12 1
    22   11   39 1
    23   11   40 1
    24   12   13 2
    25   12   14 2
    26   12   15 1
    27   15   41 1
    28   15   42 1
    29   16   17 2
    30   16   18 1
    31   18   19 1
    32   18   43 1
    33   18   44 1
    34   19   24 1
    35   19   20 am
    36   20   21 2
    37   20   22 1
    38   22   23 1
    39   23   24 2
    40   23   25 1
    41   25   30 ar
    42   25   26 ar
    43   26   27 ar
    44   26   45 1
    45   27   28 ar
    46   27   46 1
    47   28   29 ar
    48   28   31 1
    49   29   30 ar
    50   29   47 1
    51   30   48 1
@<TRIPOS>MOLECULE
ZINC23129542
   53    55     0     0     0
SMALL
USER_CHARGES
(2R)-1-[4-(3,5-dimethylisoxazol-4-yl)sulfonyl-1,4-diazepan-1-yl]-2-(2-fluorophenoxy)propan-1-one
@<TRIPOS>ATOM
      1 C1         -3.8628   -2.1816   -0.7102 C.3       1 <0>        -0.1070
      2 C2         -2.3588   -2.0894   -0.7385 C.2       1 <0>         0.1160
      3 C3         -1.5845   -1.0540   -1.3105 C.2       1 <0>        -0.7964
      4 C4         -0.3056   -1.4362   -1.0801 C.2       1 <0>         0.0973
      5 O1         -0.3707   -2.6000   -0.4183 O.3       1 <0>         0.1086
      6 N1         -1.5154   -2.9470   -0.2408 N.2       1 <0>        -0.3478
      7 C5          0.9438   -0.6977   -1.4858 C.3       1 <0>        -0.1155
      8 S1         -2.1516    0.3944   -2.1383 S.o2      1 <0>         2.7180
      9 O2         -3.4532    0.0998   -2.6264 O.2       1 <0>        -0.9437
     10 O3         -1.0953    0.8147   -2.9909 O.2       1 <0>        -0.9485
     11 N2         -2.3322    1.5749   -0.9911 N.pl3     1 <0>        -0.9867
     12 C6         -1.2194    2.4302   -0.6940 C.3       1 <0>         0.1134
     13 C7         -0.3576    1.7338    0.3727 C.3       1 <0>        -0.1849
     14 C8         -0.9409    1.8655    1.7171 C.3       1 <0>         0.0998
     15 N3         -2.3065    1.2922    1.7467 N.am      1 <0>        -0.5987
     16 C9         -3.4078    2.0312    1.1957 C.3       1 <0>         0.1019
     17 C10        -3.6441    1.7148   -0.3018 C.3       1 <0>         0.0977
     18 C11        -2.5159    0.0765    2.2897 C.2       1 <0>         0.5210
     19 O4         -3.6451   -0.3516    2.4010 O.2       1 <0>        -0.5009
     20 C12        -1.3468   -0.7508    2.7586 C.3       1 <0>         0.0664
     21 H1         -0.5304   -0.7142    2.0223 H         1 <0>         0.0888
     22 C13        -0.8913   -0.2570    4.1332 C.3       1 <0>        -0.1807
     23 O5         -1.7399   -2.1215    2.8511 O.3       1 <0>        -0.2797
     24 C14        -0.7608   -3.0550    2.7146 C.ar      1 <0>         0.1050
     25 C15         0.5652   -2.6615    2.6166 C.ar      1 <0>        -0.1893
     26 C16         1.5587   -3.6119    2.4784 C.ar      1 <0>        -0.0873
     27 C17         1.2328   -4.9549    2.4382 C.ar      1 <0>        -0.1250
     28 C18        -0.0881   -5.3516    2.5361 C.ar      1 <0>        -0.1147
     29 C19        -1.0865   -4.4049    2.6789 C.ar      1 <0>         0.0874
     30 F1         -2.3768   -4.7923    2.7793 F         1 <0>        -0.1300
     31 H2         -4.2935   -1.3032   -1.2131 H         1 <0>         0.0990
     32 H3         -4.2086   -2.2128    0.3336 H         1 <0>         0.0944
     33 H4         -4.1839   -3.0961   -1.2304 H         1 <0>         0.0888
     34 H5          1.8276   -1.2633   -1.1556 H         1 <0>         0.0984
     35 H6          0.9496    0.2978   -1.0178 H         1 <0>         0.1067
     36 H7          0.9662   -0.5886   -2.5801 H         1 <0>         0.1199
     37 H8         -0.6312    2.5974   -1.6083 H         1 <0>         0.1027
     38 H9         -1.5890    3.3942   -0.3143 H         1 <0>         0.0976
     39 H10        -0.2749    0.6629    0.1354 H         1 <0>         0.0663
     40 H11         0.6455    2.1850    0.3856 H         1 <0>         0.1012
     41 H12        -0.3121    1.3301    2.4437 H         1 <0>         0.0888
     42 H13        -0.9933    2.9294    1.9915 H         1 <0>         0.0915
     43 H14        -4.3280    1.7811    1.7440 H         1 <0>         0.1011
     44 H15        -3.2082    3.1091    1.2867 H         1 <0>         0.0890
     45 H16        -4.2158    2.5330   -0.7641 H         1 <0>         0.0942
     46 H17        -4.2087    0.7753   -0.3939 H         1 <0>         0.0915
     47 H18        -0.0379   -0.8609    4.4754 H         1 <0>         0.0807
     48 H19        -1.7198   -0.3533    4.8504 H         1 <0>         0.0824
     49 H20        -0.5887    0.7982    4.0620 H         1 <0>         0.0835
     50 H21         0.8213   -1.6128    2.6478 H         1 <0>         0.1312
     51 H22         2.5914   -3.3051    2.4021 H         1 <0>         0.1315
     52 H23         2.0114   -5.6955    2.3305 H         1 <0>         0.1340
     53 H24        -0.3401   -6.4013    2.5052 H         1 <0>         0.1409
@<TRIPOS>BOND
     1    1    2 1
     2    1   31 1
     3    1   32 1
     4    1   33 1
     5    2    6 2
     6    2    3 1
     7    3    4 2
     8    3    8 1
     9    4    5 1
    10    4    7 1
    11    5    6 1
    12    7   34 1
    13    7   35 1
    14    7   36 1
    15    8    9 2
    16    8   10 2
    17    8   11 1
    18   11   17 1
    19   11   12 1
    20   12   13 1
    21   12   37 1
    22   12   38 1
    23   13   14 1
    24   13   39 1
    25   13   40 1
    26   14   15 1
    27   14   41 1
    28   14   42 1
    29   15   16 1
    30   15   18 am
    31   16   17 1
    32   16   43 1
    33   16   44 1
    34   17   45 1
    35   17   46 1
    36   18   19 2
    37   18   20 1
    38   20   21 1
    39   20   22 1
    40   20   23 1
    41   22   47 1
    42   22   48 1
    43   22   49 1
    44   23   24 1
    45   24   29 ar
    46   24   25 ar
    47   25   26 ar
    48   25   50 1
    49   26   27 ar
    50   26   51 1
    51   27   28 ar
    52   27   52 1
    53   28   29 ar
    54   28   53 1
    55   29   30 1
@<TRIPOS>MOLECULE
ZINC02883367
   51    54     0     0     0
SMALL
USER_CHARGES

@<TRIPOS>ATOM
      1 C1         -0.0164    1.3567    0.0095 C.ar      1 <0>        -0.0923
      2 C2          1.1686    2.0905    0.0021 C.ar      1 <0>        -0.1202
      3 C3          2.3785    1.4675   -0.0131 C.ar      1 <0>        -0.0910
      4 C4          2.4375    0.0634   -0.0211 C.ar      1 <0>        -0.0787
      5 C5          3.6681   -0.6153   -0.0364 C.ar      1 <0>         0.0178
      6 C6          3.6865   -1.9761   -0.0434 C.ar      1 <0>        -0.6734
      7 C7          2.5015   -2.7098   -0.0357 C.ar      1 <0>        -0.0457
      8 C8          1.2917   -2.0868   -0.0209 C.ar      1 <0>        -0.1153
      9 C9          1.2327   -0.6827   -0.0133 C.ar      1 <0>        -0.0121
     10 C10         0.0021   -0.0041    0.0020 C.ar      1 <0>        -0.1194
     11 S1          5.2315   -2.8230   -0.0631 S.o2      1 <0>         2.6878
     12 O1          4.9835   -4.1075   -0.6179 O.2       1 <0>        -0.9475
     13 O2          6.1807   -1.9234   -0.6189 O.2       1 <0>        -0.9502
     14 N1          5.6766   -3.0663    1.5133 N.pl3     1 <0>        -0.9942
     15 C11         6.4806   -2.0640    2.2267 C.3       1 <0>         0.1067
     16 C12         5.7399   -1.6638    3.5087 C.3       1 <0>         0.1019
     17 N2          5.3376   -2.8856    4.2195 N.pl3     1 <0>        -1.0037
     18 C13         4.5337   -3.8878    3.5062 C.3       1 <0>         0.1019
     19 C14         5.2696   -4.2855    2.2259 C.3       1 <0>         0.1071
     20 S2          5.7827   -3.1288    5.7959 S.o2      1 <0>         2.7809
     21 O3          5.7589   -4.5330    6.0126 O.2       1 <0>        -0.9659
     22 O4          6.9468   -2.3438    6.0150 O.2       1 <0>        -0.9661
     23 N3          4.5905   -2.4829    6.7466 N.pl3     1 <0>        -1.0093
     24 C15         4.6437   -1.0769    7.1776 C.3       1 <0>         0.0866
     25 C16         3.2960   -0.4212    6.8556 C.3       1 <0>         0.0487
     26 O5          2.2426   -1.2150    7.4073 O.3       1 <0>        -0.3745
     27 C17         2.1569   -2.5340    6.8626 C.3       1 <0>         0.0486
     28 C18         3.4435   -3.2963    7.1802 C.3       1 <0>         0.0863
     29 H1         -0.9633    1.8757    0.0259 H         1 <0>         0.1292
     30 H2          1.1260    3.1696    0.0083 H         1 <0>         0.1295
     31 H3          3.2884    2.0491   -0.0194 H         1 <0>         0.1339
     32 H4          4.5943   -0.0599   -0.0428 H         1 <0>         0.1449
     33 H5          2.5441   -3.7890   -0.0419 H         1 <0>         0.1388
     34 H6          0.3816   -2.6684   -0.0154 H         1 <0>         0.1364
     35 H7         -0.9241   -0.5595    0.0082 H         1 <0>         0.1328
     36 H8          7.4514   -2.4884    2.4825 H         1 <0>         0.0876
     37 H9          6.6171   -1.1869    1.5942 H         1 <0>         0.1057
     38 H10         6.4000   -1.0721    4.1430 H         1 <0>         0.1058
     39 H11         4.8549   -1.0810    3.2532 H         1 <0>         0.0758
     40 H12         4.3971   -4.7649    4.1387 H         1 <0>         0.1061
     41 H13         3.5628   -3.4634    3.2504 H         1 <0>         0.0763
     42 H14         4.6066   -4.8751    1.5927 H         1 <0>         0.1068
     43 H15         6.1522   -4.8717    2.4816 H         1 <0>         0.0868
     44 H16         4.8284   -1.0287    8.2507 H         1 <0>         0.0842
     45 H17         5.4406   -0.5592    6.6438 H         1 <0>         0.0972
     46 H18         3.2644    0.5781    7.2897 H         1 <0>         0.1077
     47 H19         3.1730   -0.3536    5.7747 H         1 <0>         0.0552
     48 H20         1.3059   -3.0546    7.3016 H         1 <0>         0.1081
     49 H21         2.0298   -2.4740    5.7817 H         1 <0>         0.0549
     50 H22         3.4460   -4.2477    6.6482 H         1 <0>         0.0976
     51 H23         3.5052   -3.4753    8.2537 H         1 <0>         0.0839
@<TRIPOS>BOND
     1    1   10 ar
     2    1    2 ar
     3    1   29 1
     4    2    3 ar
     5    2   30 1
     6    3    4 ar
     7    3   31 1
     8    4    9 ar
     9    4    5 ar
    10    5    6 ar
    11    5   32 1
    12    6    7 ar
    13    6   11 1
    14    7    8 ar
    15    7   33 1
    16    8    9 ar
    17    8   34 1
    18    9   10 ar
    19   10   35 1
    20   11   12 2
    21   11   13 2
    22   11   14 1
    23   14   19 1
    24   14   15 1
    25   15   16 1
    26   15   36 1
    27   15   37 1
    28   16   17 1
    29   16   38 1
    30   16   39 1
    31   17   18 1
    32   17   20 1
    33   18   19 1
    34   18   40 1
    35   18   41 1
    36   19   42 1
    37   19   43 1
    38   20   21 2
    39   20   22 2
    40   20   23 1
    41   23   28 1
    42   23   24 1
    43   24   25 1
    44   24   44 1
    45   24   45 1
    46   25   26 1
    47   25   46 1
    48   25   47 1
    49   26   27 1
    50   27   28 1
    51   27   48 1
    52   27   49 1
    53   28   50 1
    54   28   51 1
@<TRIPOS>MOLECULE
ZINC58723767
   61    63     0     0     0
SMALL
USER_CHARGES

@<TRIPOS>ATOM
      1 C1         -0.4801    0.8170   -0.3182 C.3       1 <0>        -0.1477
      2 C2         -0.3061   -0.7015   -0.2491 C.3       1 <0>        -0.1051
      3 H1         -1.2855   -1.1796   -0.2343 H         1 <0>         0.0755
      4 C3          0.4784   -1.1819   -1.4722 C.3       1 <0>        -0.1136
      5 C4          0.6246   -2.7045   -1.4208 C.3       1 <0>        -0.1331
      6 C5          1.4044   -3.0963   -0.1618 C.3       1 <0>         0.1172
      7 N1          0.7347   -2.5145    1.0095 N.pl3     1 <0>        -1.0060
      8 C6          0.4625   -1.0707    1.0236 C.3       1 <0>         0.1219
      9 S1          0.2944   -3.4681    2.2897 S.o2      1 <0>         2.7813
     10 O1         -0.7670   -2.7942    2.9519 O.2       1 <0>        -0.9716
     11 O2          0.1601   -4.7895    1.7847 O.2       1 <0>        -0.9663
     12 N2          1.5709   -3.4919    3.3444 N.pl3     1 <0>        -0.9945
     13 C7          2.5971   -4.4700    3.2452 C.3       1 <0>         0.1265
     14 C8          2.2698   -5.8307    3.9426 C.3       1 <0>        -0.1680
     15 C9          1.4956   -5.5024    5.2609 C.3       1 <0>         0.1271
     16 N3          1.9570   -4.3463    5.9463 N.pl3     1 <0>        -0.9939
     17 C10         1.2324   -3.0750    5.6902 C.3       1 <0>         0.1051
     18 C11         1.6971   -2.4881    4.4321 C.3       1 <0>         0.1031
     19 S2          3.2450   -4.4134    6.9850 S.o2      1 <0>         2.7817
     20 O3          3.9644   -5.5960    6.6641 O.2       1 <0>        -0.9664
     21 O4          3.8479   -3.1267    6.9680 O.2       1 <0>        -0.9716
     22 N4          2.6343   -4.6297    8.5090 N.pl3     1 <0>        -1.0048
     23 C12         2.3268   -3.4745    9.3632 C.3       1 <0>         0.1187
     24 C13         0.8766   -3.5886    9.8435 C.3       1 <0>        -0.1358
     25 C14         0.6737   -4.9446   10.5232 C.3       1 <0>        -0.1127
     26 C15         0.9388   -6.0665    9.5166 C.3       1 <0>        -0.1076
     27 H2          0.2648   -5.9594    8.6667 H         1 <0>         0.0747
     28 C16         2.3840   -5.9804    9.0304 C.3       1 <0>         0.1255
     29 C17         0.7031   -7.4211   10.1878 C.3       1 <0>        -0.1482
     30 H3          0.4996    1.2947   -0.3330 H         1 <0>         0.0576
     31 H4         -1.0259    1.0793   -1.2245 H         1 <0>         0.0603
     32 H5         -1.0378    1.1588    0.5537 H         1 <0>         0.0588
     33 H6         -0.0548   -0.8988   -2.3798 H         1 <0>         0.0671
     34 H7          1.4666   -0.7220   -1.4734 H         1 <0>         0.0653
     35 H8         -0.3634   -3.1641   -1.3946 H         1 <0>         0.0681
     36 H9          1.1631   -3.0482   -2.3040 H         1 <0>         0.0774
     37 H10         1.4260   -4.1821   -0.0685 H         1 <0>         0.0915
     38 H11         2.4226   -2.7129   -0.2285 H         1 <0>         0.0698
     39 H12         1.4038   -0.5221    1.0541 H         1 <0>         0.0705
     40 H13        -0.1375   -0.8200    1.8984 H         1 <0>         0.0908
     41 H14         2.7907   -4.6611    2.1897 H         1 <0>         0.0679
     42 H15         3.5052   -4.0637    3.6906 H         1 <0>         0.0725
     43 H16         1.6472   -6.4421    3.2892 H         1 <0>         0.0908
     44 H17         3.1939   -6.3592    4.1769 H         1 <0>         0.0896
     45 H18         0.4427   -5.3615    5.0166 H         1 <0>         0.0719
     46 H19         1.5787   -6.3575    5.9318 H         1 <0>         0.0690
     47 H20         0.1626   -3.2738    5.6259 H         1 <0>         0.0897
     48 H21         1.4230   -2.3781    6.5063 H         1 <0>         0.0949
     49 H22         2.7411   -2.1911    4.5324 H         1 <0>         0.0911
     50 H23         1.0933   -1.6134    4.1904 H         1 <0>         0.0971
     51 H24         2.9969   -3.4670   10.2229 H         1 <0>         0.0744
     52 H25         2.4513   -2.5544    8.7922 H         1 <0>         0.0885
     53 H26         0.6649   -2.7899   10.5544 H         1 <0>         0.0769
     54 H27         0.2032   -3.5048    8.9904 H         1 <0>         0.0675
     55 H28         1.3646   -5.0378   11.3611 H         1 <0>         0.0654
     56 H29        -0.3509   -5.0184   10.8877 H         1 <0>         0.0664
     57 H30         2.5463   -6.7131    8.2399 H         1 <0>         0.0872
     58 H31         3.0589   -6.1818    9.8623 H         1 <0>         0.0742
     59 H32        -0.3288   -7.4803   10.5341 H         1 <0>         0.0600
     60 H33         0.8920   -8.2197    9.4705 H         1 <0>         0.0583
     61 H34         1.3780   -7.5281   11.0370 H         1 <0>         0.0581
@<TRIPOS>BOND
     1    1    2 1
     2    1   30 1
     3    1   31 1
     4    1   32 1
     5    2    3 1
     6    2    8 1
     7    2    4 1
     8    4    5 1
     9    4   33 1
    10    4   34 1
    11    5    6 1
    12    5   35 1
    13    5   36 1
    14    6    7 1
    15    6   37 1
    16    6   38 1
    17    7    8 1
    18    7    9 1
    19    8   39 1
    20    8   40 1
    21    9   10 2
    22    9   11 2
    23    9   12 1
    24   12   18 1
    25   12   13 1
    26   13   14 1
    27   13   41 1
    28   13   42 1
    29   14   15 1
    30   14   43 1
    31   14   44 1
    32   15   16 1
    33   15   45 1
    34   15   46 1
    35   16   17 1
    36   16   19 1
    37   17   18 1
    38   17   47 1
    39   17   48 1
    40   18   49 1
    41   18   50 1
    42   19   20 2
    43   19   21 2
    44   19   22 1
    45   22   28 1
    46   22   23 1
    47   23   24 1
    48   23   51 1
    49   23   52 1
    50   24   25 1
    51   24   53 1
    52   24   54 1
    53   25   26 1
    54   25   55 1
    55   25   56 1
    56   26   27 1
    57   26   28 1
    58   26   29 1
    59   28   57 1
    60   28   58 1
    61   29   59 1
    62   29   60 1
    63   29   61 1
@<TRIPOS>MOLECULE
ZINC00649031
   42    45     0     0     0
SMALL
USER_CHARGES
4-amino-2-[5-[(3-bromophenoxy)methyl]-2-furyl]-9-methyl-5-oxa-7,8-diazabicyclo[4.3.0]nona-3,8,10-triene-3-carbonitrile
@<TRIPOS>ATOM
      1 C1         -3.5044    4.4053    0.8158 C.3       1 <0>        -0.0834
      2 C2         -2.0146    4.5825    0.6737 C.2       1 <0>         0.1256
      3 C3         -1.1045    3.5907    0.3338 C.2       1 <0>        -0.2762
      4 C4          0.1427    4.1500    0.3111 C.2       1 <0>         0.2860
      5 N1          0.0109    5.4487    0.6255 N.pl3     1 <0>        -0.4472
      6 H1          0.7517    6.1175    0.6883 H         1 <0>         0.4547
      7 N2         -1.3515    5.7007    0.8503 N.2       1 <0>        -0.2611
      8 O1          1.2586    3.4393    0.0128 O.3       1 <0>        -0.2293
      9 C5          1.1582    2.0945    0.0022 C.2       1 <0>         0.4526
     10 C6         -0.0173    1.4278    0.0099 C.2       1 <0>        -0.2702
     11 C7         -1.3491    2.1359    0.0202 C.3       1 <0>         0.1652
     12 H2         -1.9915    1.7000    0.7853 H         1 <0>         0.1224
     13 C8         -2.0049    2.0054   -1.3303 C.2       1 <0>         0.0211
     14 C9         -3.1955    1.4290   -1.5742 C.2       1 <0>        -0.2084
     15 C10        -3.4205    1.5270   -2.9666 C.2       1 <0>        -0.1659
     16 C11        -2.3538    2.1574   -3.4903 C.2       1 <0>        -0.0332
     17 O2         -1.5023    2.4499   -2.4937 O.3       1 <0>        -0.1576
     18 C12        -2.1513    2.4849   -4.9473 C.3       1 <0>         0.1449
     19 O3         -2.6992    3.7748   -5.2262 O.3       1 <0>        -0.3050
     20 C13        -2.5990    4.2244   -6.5047 C.ar      1 <0>         0.1385
     21 C14        -1.9806    3.4424   -7.4698 C.ar      1 <0>        -0.1962
     22 C15        -1.8836    3.8992   -8.7698 C.ar      1 <0>        -0.0711
     23 C16        -2.3935    5.1391   -9.1081 C.ar      1 <0>        -0.1286
     24 C17        -3.0059    5.9233   -8.1470 C.ar      1 <0>        -0.0516
     25 C18        -3.1096    5.4681   -6.8457 C.ar      1 <0>        -0.1236
     26 Br1        -3.7010    7.6190   -8.6132 Br        1 <0>        -0.0381
     27 C19         0.0021   -0.0041    0.0020 C.1       1 <0>         0.2694
     28 N3          0.0175   -1.1399   -0.0042 N.1       1 <0>        -0.4335
     29 N4          2.3177    1.3599   -0.0178 N.pl3     1 <0>        -0.8279
     30 H3         -3.7415    4.1339    1.8445 H         1 <0>         0.0870
     31 H4         -4.0072    5.3383    0.5611 H         1 <0>         0.0809
     32 H5         -3.8420    3.6157    0.1446 H         1 <0>         0.0845
     33 H6         -3.8532    0.9775   -0.8462 H         1 <0>         0.1539
     34 H7         -4.2833    1.1655   -3.5062 H         1 <0>         0.1518
     35 H8         -1.0852    2.4861   -5.1746 H         1 <0>         0.0805
     36 H9         -2.6528    1.7366   -5.5610 H         1 <0>         0.0974
     37 H10        -1.5787    2.4754   -7.2056 H         1 <0>         0.1352
     38 H11        -1.4060    3.2888   -9.5219 H         1 <0>         0.1369
     39 H12        -2.3133    5.4961  -10.1243 H         1 <0>         0.1360
     40 H13        -3.5880    6.0801   -6.0954 H         1 <0>         0.1419
     41 H14         2.2778    0.3908   -0.0261 H         1 <0>         0.4289
     42 H15         3.1769    1.8100   -0.0238 H         1 <0>         0.4128
@<TRIPOS>BOND
     1    1    2 1
     2    1   30 1
     3    1   31 1
     4    1   32 1
     5    2    7 2
     6    2    3 1
     7    3   11 1
     8    3    4 2
     9    4    5 1
    10    4    8 1
    11    5    6 1
    12    5    7 1
    13    8    9 1
    14    9   10 2
    15    9   29 1
    16   10   11 1
    17   10   27 1
    18   11   12 1
    19   11   13 1
    20   13   17 1
    21   13   14 2
    22   14   15 1
    23   14   33 1
    24   15   16 2
    25   15   34 1
    26   16   17 1
    27   16   18 1
    28   18   19 1
    29   18   35 1
    30   18   36 1
    31   19   20 1
    32   20   25 ar
    33   20   21 ar
    34   21   22 ar
    35   21   37 1
    36   22   23 ar
    37   22   38 1
    38   23   24 ar
    39   23   39 1
    40   24   25 ar
    41   24   26 1
    42   25   40 1
    43   27   28 3
    44   29   41 1
    45   29   42 1
@<TRIPOS>MOLECULE
ZINC12777016
   54    56     0     0     0
SMALL
USER_CHARGES
3-(4,7-dimethyl-2-oxo-chromen-3-yl)-N-(2,3-dimethyl-5-sulfamoyl-phenyl)propanamide
@<TRIPOS>ATOM
      1 C1        -11.2719   -7.0528    5.1326 C.3       1 <0>        -0.1227
      2 C2        -10.2327   -6.1325    4.5458 C.ar      1 <0>        -0.0274
      3 C3        -10.6057   -5.1926    3.5957 C.ar      1 <0>        -0.1414
      4 C4         -9.6774   -4.3496    3.0524 C.ar      1 <0>        -0.0527
      5 C5         -8.3420   -4.4349    3.4582 C.ar      1 <0>        -0.1578
      6 C6         -7.3222   -3.5448    2.8949 C.2       1 <0>         0.0343
      7 C7         -6.0439   -3.6785    3.3302 C.2       1 <0>        -0.2258
      8 C8         -5.7304   -4.6600    4.2956 C.2       1 <0>         0.5139
      9 O1         -4.5785   -4.7734    4.6739 O.2       1 <0>        -0.4560
     10 O2         -6.6704   -5.4675    4.8105 O.3       1 <0>        -0.2698
     11 C9         -7.9603   -5.3859    4.4205 C.ar      1 <0>         0.1508
     12 C10        -8.9208   -6.2329    4.9590 C.ar      1 <0>        -0.1372
     13 C11        -4.9610   -2.7863    2.7804 C.3       1 <0>        -0.0475
     14 C12        -4.8513   -1.5269    3.6424 C.3       1 <0>        -0.1354
     15 C13        -3.7685   -0.6346    3.0926 C.2       1 <0>         0.5158
     16 O3         -3.1457   -0.9727    2.1082 O.2       1 <0>        -0.5130
     17 N1         -3.4920    0.5390    3.6947 N.am      1 <0>        -0.6731
     18 C14        -2.5531    1.4103    3.1314 C.ar      1 <0>         0.1266
     19 C15        -1.4404    0.9030    2.4728 C.ar      1 <0>        -0.0220
     20 C16        -0.5159    1.7655    1.9176 C.ar      1 <0>        -0.6638
     21 C17        -0.6942    3.1330    2.0214 C.ar      1 <0>        -0.0347
     22 C18        -1.8034    3.6411    2.6719 C.ar      1 <0>        -0.0889
     23 C19        -2.7319    2.7837    3.2294 C.ar      1 <0>        -0.0557
     24 C20        -3.9379    3.3384    3.9428 C.3       1 <0>        -0.1278
     25 C21        -1.9967    5.1319    2.7777 C.3       1 <0>        -0.1190
     26 S1          0.8963    1.1230    1.0822 S.o2      1 <0>         2.7027
     27 O4          1.1162   -0.1816    1.6008 O.2       1 <0>        -0.9553
     28 O5          1.8903    2.1376    1.1256 O.2       1 <0>        -0.9575
     29 N2          0.4803    0.9357   -0.5097 N.pl3     1 <0>        -1.2424
     30 C22        -7.6836   -2.5102    1.8605 C.3       1 <0>        -0.1318
     31 H1        -11.7053   -6.5923    6.0205 H         1 <0>         0.0813
     32 H2        -12.0558   -7.2318    4.3968 H         1 <0>         0.0757
     33 H3        -10.8062   -7.9999    5.4051 H         1 <0>         0.0747
     34 H4        -11.6374   -5.1270    3.2830 H         1 <0>         0.1360
     35 H5         -9.9741   -3.6201    2.3133 H         1 <0>         0.1401
     36 H6         -8.6408   -6.9681    5.6988 H         1 <0>         0.1445
     37 H7         -5.2068   -2.5053    1.7563 H         1 <0>         0.0906
     38 H8         -4.0101   -3.3190    2.7928 H         1 <0>         0.0960
     39 H9         -4.6055   -1.8078    4.6665 H         1 <0>         0.1034
     40 H10        -5.8022   -0.9942    3.6300 H         1 <0>         0.0992
     41 H11        -3.9439    0.7798    4.5185 H         1 <0>         0.4136
     42 H12        -1.2987   -0.1648    2.3946 H         1 <0>         0.1586
     43 H13         0.0325    3.8055    1.5899 H         1 <0>         0.1433
     44 H14        -3.7037    3.4774    4.9982 H         1 <0>         0.0812
     45 H15        -4.2118    4.2969    3.5020 H         1 <0>         0.0828
     46 H16        -4.7706    2.6419    3.8441 H         1 <0>         0.0689
     47 H17        -1.5179    5.4967    3.6865 H         1 <0>         0.0769
     48 H18        -1.5496    5.6187    1.9110 H         1 <0>         0.0726
     49 H19        -3.0623    5.3586    2.8123 H         1 <0>         0.0737
     50 H20         0.5174    0.0578   -0.9206 H         1 <0>         0.4233
     51 H21         0.1996    1.7038   -1.0312 H         1 <0>         0.4181
     52 H22        -7.5879   -2.9431    0.8647 H         1 <0>         0.0938
     53 H23        -8.7115   -2.1833    2.0173 H         1 <0>         0.0823
     54 H24        -7.0127   -1.6559    1.9512 H         1 <0>         0.0841
@<TRIPOS>BOND
     1    1    2 1
     2    1   31 1
     3    1   32 1
     4    1   33 1
     5    2   12 ar
     6    2    3 ar
     7    3    4 ar
     8    3   34 1
     9    4    5 ar
    10    4   35 1
    11    5   11 ar
    12    5    6 1
    13    6    7 2
    14    6   30 1
    15    7    8 1
    16    7   13 1
    17    8    9 2
    18    8   10 1
    19   10   11 1
    20   11   12 ar
    21   12   36 1
    22   13   14 1
    23   13   37 1
    24   13   38 1
    25   14   15 1
    26   14   39 1
    27   14   40 1
    28   15   16 2
    29   15   17 am
    30   17   18 1
    31   17   41 1
    32   18   23 ar
    33   18   19 ar
    34   19   20 ar
    35   19   42 1
    36   20   21 ar
    37   20   26 1
    38   21   22 ar
    39   21   43 1
    40   22   23 ar
    41   22   25 1
    42   23   24 1
    43   24   44 1
    44   24   45 1
    45   24   46 1
    46   25   47 1
    47   25   48 1
    48   25   49 1
    49   26   27 2
    50   26   28 2
    51   26   29 1
    52   29   50 1
    53   29   51 1
    54   30   52 1
    55   30   53 1
    56   30   54 1
@<TRIPOS>MOLECULE
ZINC25638563
   39    39     0     0     0
SMALL
USER_CHARGES
[2-[[(1R)-1-cyano-1,2-dimethyl-propyl]amino]-2-oxo-ethyl] 4-amino-3,5,6-trichloro-pyridine-2-carboxylate
@<TRIPOS>ATOM
      1 C1          2.5350    5.7123   -0.1172 C.3       1 <0>        -0.1571
      2 C2          2.5551    4.1869    0.0001 C.3       1 <0>        -0.0919
      3 C3          3.2570    3.7845    1.2987 C.3       1 <0>        -0.1589
      4 C4          1.1197    3.6573    0.0110 C.3       1 <0>         0.2897
      5 C5          0.3797    4.1641   -1.2285 C.3       1 <0>        -0.1722
      6 C6          0.4307    4.1320    1.2221 C.1       1 <0>         0.2026
      7 N1         -0.1010    4.4984    2.1567 N.1       1 <0>        -0.4092
      8 N2          1.1395    2.1925    0.0030 N.am      1 <0>        -0.7310
      9 C7         -0.0184    1.5028    0.0103 C.2       1 <0>         0.5173
     10 O1         -1.0768    2.0948    0.0185 O.2       1 <0>        -0.4965
     11 C8          0.0021   -0.0041    0.0020 C.3       1 <0>         0.0451
     12 O2         -1.3601   -0.5067    0.0123 O.3       1 <0>        -0.3028
     13 C9         -1.5185   -1.8443    0.0067 C.2       1 <0>         0.5248
     14 O3         -0.5454   -2.5709   -0.0065 O.2       1 <0>        -0.4676
     15 C10        -2.8776   -2.4282    0.0165 C.ar      1 <0>         0.1685
     16 C11        -3.0338   -3.8116    0.0048 C.ar      1 <0>        -0.1123
     17 C12        -4.3227   -4.3465    0.0195 C.ar      1 <0>         0.2941
     18 C13        -5.4038   -3.4671    0.0346 C.ar      1 <0>        -0.1389
     19 C14        -5.1665   -2.1015    0.0397 C.ar      1 <0>         0.2284
     20 N3         -3.9385   -1.6270    0.0309 N.ar      1 <0>        -0.4441
     21 Cl1        -6.5086   -1.0004    0.0584 Cl        1 <0>         0.0138
     22 Cl2        -7.0297   -4.0754    0.0463 Cl        1 <0>        -0.0150
     23 N4         -4.5237   -5.7253    0.0140 N.pl3     1 <0>        -0.8574
     24 Cl3        -1.6467   -4.8551   -0.0213 Cl        1 <0>         0.0029
     25 H1          2.0304    6.0016   -1.0508 H         1 <0>         0.0704
     26 H2          3.5670    6.0931   -0.1250 H         1 <0>         0.0708
     27 H3          1.9932    6.1388    0.7399 H         1 <0>         0.0575
     28 H4          3.0968    3.7603   -0.8569 H         1 <0>         0.1028
     29 H5          3.2715    2.6878    1.3830 H         1 <0>         0.0610
     30 H6          2.7152    4.2111    2.1557 H         1 <0>         0.0572
     31 H7          4.2890    4.1653    1.2909 H         1 <0>         0.0706
     32 H8         -0.6523    3.7833   -1.2206 H         1 <0>         0.0881
     33 H9          0.8946    3.8093   -2.1335 H         1 <0>         0.0808
     34 H10         0.3648    5.2640   -1.2225 H         1 <0>         0.0799
     35 H11         2.0994    1.6555   -0.0090 H         1 <0>         0.4340
     36 H12         0.5170   -0.3588   -0.9030 H         1 <0>         0.1116
     37 H13         0.5342   -0.3685    0.8931 H         1 <0>         0.1086
     38 H14        -5.5456   -6.1322    0.0258 H         1 <0>         0.4374
     39 H15        -3.6605   -6.4069   -0.0021 H         1 <0>         0.4370
@<TRIPOS>BOND
     1    1    2 1
     2    1   25 1
     3    1   26 1
     4    1   27 1
     5    2    3 1
     6    2    4 1
     7    2   28 1
     8    3   29 1
     9    3   30 1
    10    3   31 1
    11    4    5 1
    12    4    6 1
    13    4    8 1
    14    5   32 1
    15    5   33 1
    16    5   34 1
    17    6    7 3
    18    8    9 am
    19    8   35 1
    20    9   10 2
    21    9   11 1
    22   11   12 1
    23   11   36 1
    24   11   37 1
    25   12   13 1
    26   13   14 2
    27   13   15 1
    28   15   20 ar
    29   15   16 ar
    30   16   17 ar
    31   16   24 1
    32   17   18 ar
    33   17   23 1
    34   18   19 ar
    35   18   22 1
    36   19   20 ar
    37   19   21 1
    38   23   38 1
    39   23   39 1
@<TRIPOS>MOLECULE
ZINC38556437
   42    45     0     0     0
SMALL
USER_CHARGES

@<TRIPOS>ATOM
      1 C1         -0.0169    1.3946    0.0097 C.ar      1 <0>        -0.0387
      2 C2          1.1690    2.0971    0.0022 C.ar      1 <0>        -0.1080
      3 C3          2.3783    1.4217   -0.0130 C.ar      1 <0>        -0.0002
      4 C4          2.4055    0.0351   -0.0207 C.ar      1 <0>        -0.0452
      5 C5          1.2266   -0.6806   -0.0133 C.ar      1 <0>        -0.0521
      6 C6          0.0021   -0.0041    0.0020 C.ar      1 <0>        -0.1487
      7 C7         -1.2596   -0.7601    0.0105 C.2       1 <0>         0.4210
      8 O1         -2.3194   -0.1710    0.0242 O.2       1 <0>        -0.4205
      9 C8         -1.2352   -2.2669    0.0022 C.3       1 <0>        -0.1666
     10 S1         -2.9353   -2.8993    0.0157 S.3       1 <0>         0.0410
     11 C9         -2.7389   -4.6503    0.0043 C.2       1 <0>         0.2479
     12 N1         -1.5963   -5.2492   -0.0047 N.2       1 <0>        -0.3027
     13 N2         -1.7469   -6.6413   -0.0117 N.pl3     1 <0>        -0.6487
     14 C10        -3.1977   -6.8969   -0.0060 C.3       1 <0>         0.4384
     15 H1         -3.4852   -7.4495    0.8884 H         1 <0>         0.0880
     16 N3         -3.7941   -5.5505    0.0100 N.pl3     1 <0>        -0.4708
     17 N4         -5.1260   -5.2474    0.0248 N.3       1 <0>        -0.5603
     18 C11        -3.6131   -7.6616   -1.2644 C.3       1 <0>        -0.0525
     19 H2         -3.3575   -7.0958   -2.1603 H         1 <0>         0.1467
     20 C12        -2.9715   -9.0336   -1.2950 C.2       1 <0>        -0.1403
     21 C13        -3.9940   -9.8867   -1.2790 C.2       1 <0>        -0.0635
     22 C14        -3.4747  -11.3131   -1.3058 C.3       1 <0>        -0.0487
     23 C15        -2.0072  -11.1984   -1.7730 C.3       1 <0>        -0.1180
     24 C16        -1.6516   -9.7590   -1.3366 C.3       1 <0>        -0.0634
     25 N5         -5.1689   -9.2008   -1.2439 N.2       1 <0>        -0.1394
     26 N6         -5.0529   -7.9709   -1.2357 N.2       1 <0>        -0.1500
     27 Cl1         3.9265   -0.8014   -0.0403 Cl        1 <0>        -0.0346
     28 Cl2         3.8668    2.3151   -0.0230 Cl        1 <0>        -0.0324
     29 H3         -0.9587    1.9229    0.0260 H         1 <0>         0.1544
     30 H4          1.1553    3.1770    0.0077 H         1 <0>         0.1542
     31 H5          1.2487   -1.7603   -0.0197 H         1 <0>         0.1539
     32 H6         -0.7244   -2.6171   -0.8948 H         1 <0>         0.1333
     33 H7         -0.7067   -2.6266    0.8850 H         1 <0>         0.1353
     34 H8         -1.0386   -7.3040   -0.0194 H         1 <0>         0.4483
     35 H9         -5.2695   -4.2487    0.0311 H         1 <0>         0.3621
     36 H10        -5.6031   -5.6763   -0.7540 H         1 <0>         0.3521
     37 H11        -3.5213  -11.7516   -0.3089 H         1 <0>         0.0907
     38 H12        -4.0506  -11.9124   -2.0110 H         1 <0>         0.0860
     39 H13        -1.3773  -11.9277   -1.2636 H         1 <0>         0.0912
     40 H14        -1.9323  -11.3082   -2.8549 H         1 <0>         0.0805
     41 H15        -0.9862   -9.2950   -2.0648 H         1 <0>         0.0866
     42 H16        -1.1902   -9.7647   -0.3491 H         1 <0>         0.0934
@<TRIPOS>BOND
     1    1    6 ar
     2    1    2 ar
     3    1   29 1
     4    2    3 ar
     5    2   30 1
     6    3    4 ar
     7    3   28 1
     8    4    5 ar
     9    4   27 1
    10    5    6 ar
    11    5   31 1
    12    6    7 1
    13    7    8 2
    14    7    9 1
    15    9   10 1
    16    9   32 1
    17    9   33 1
    18   10   11 1
    19   11   16 1
    20   11   12 2
    21   12   13 1
    22   13   14 1
    23   13   34 1
    24   14   15 1
    25   14   16 1
    26   14   18 1
    27   16   17 1
    28   17   35 1
    29   17   36 1
    30   18   19 1
    31   18   26 1
    32   18   20 1
    33   20   24 1
    34   20   21 2
    35   21   22 1
    36   21   25 1
    37   22   23 1
    38   22   37 1
    39   22   38 1
    40   23   24 1
    41   23   39 1
    42   23   40 1
    43   24   41 1
    44   24   42 1
    45   25   26 2
@<TRIPOS>MOLECULE
ZINC05343945
   55    58     0     0     0
SMALL
USER_CHARGES

@<TRIPOS>ATOM
      1 C1         -0.0187    1.5258    0.0104 C.3       1 <0>        -0.1529
      2 C2          0.0021   -0.0041    0.0020 C.3       1 <0>         0.0567
      3 O1         -1.3386   -0.4987    0.0122 O.3       1 <0>        -0.3168
      4 C3         -1.4983   -1.8483    0.0064 C.ar      1 <0>         0.1419
      5 C4         -0.3874   -2.6795   -0.0028 C.ar      1 <0>        -0.2006
      6 C5         -0.5524   -4.0508   -0.0082 C.ar      1 <0>        -0.0773
      7 C6         -1.8235   -4.5955   -0.0042 C.ar      1 <0>        -0.1300
      8 C7         -2.9320   -3.7694    0.0045 C.ar      1 <0>        -0.0403
      9 C8         -2.7722   -2.3971    0.0157 C.ar      1 <0>        -0.1189
     10 C9         -4.3157   -4.3663    0.0083 C.3       1 <0>         0.2603
     11 H1         -5.0368   -3.6366    0.3768 H         1 <0>         0.1000
     12 C10        -4.6914   -4.8081   -1.3798 C.2       1 <0>        -0.1796
     13 C11        -4.9113   -4.4613   -2.6745 C.2       1 <0>         0.1081
     14 N1         -5.2516   -5.6074   -3.3345 N.pl3     1 <0>        -0.3776
     15 H2         -5.4651   -5.6636   -4.2791 H         1 <0>         0.4520
     16 N2         -5.2468   -6.6009   -2.5186 N.2       1 <0>        -0.2043
     17 C12        -4.9161   -6.2015   -1.3068 C.2       1 <0>        -0.0329
     18 C13        -4.6876   -6.6243    0.0867 C.2       1 <0>         0.6123
     19 O2         -4.7969   -7.7652    0.4920 O.2       1 <0>        -0.4960
     20 N3         -4.3431   -5.5698    0.8476 N.am      1 <0>        -0.5970
     21 C14        -4.0422   -5.6149    2.2806 C.3       1 <0>         0.1408
     22 C15        -5.3279   -5.3901    3.0790 C.3       1 <0>         0.0547
     23 O3         -6.2282   -6.4754    2.8475 O.3       1 <0>        -0.5590
     24 C16        -4.8030   -3.1055   -3.2566 C.ar      1 <0>        -0.0601
     25 C17        -5.9366   -2.4647   -3.7558 C.ar      1 <0>        -0.0914
     26 C18        -5.8299   -1.2001   -4.2971 C.ar      1 <0>        -0.0889
     27 C19        -4.6014   -0.5645   -4.3472 C.ar      1 <0>        -0.0932
     28 C20        -3.4712   -1.1901   -3.8559 C.ar      1 <0>        -0.1013
     29 C21        -3.5637   -2.4574   -3.3037 C.ar      1 <0>         0.1399
     30 O4         -2.4545   -3.0707   -2.8150 O.3       1 <0>        -0.4712
     31 C22        -2.1378   -0.4906   -3.9156 C.3       1 <0>        -0.1069
     32 C23        -7.0554   -0.5086   -4.8363 C.3       1 <0>        -0.1160
     33 H3          1.0039    1.9031    0.0027 H         1 <0>         0.0777
     34 H4         -0.5459    1.8868   -0.8726 H         1 <0>         0.0656
     35 H5         -0.5289    1.8773    0.9072 H         1 <0>         0.0660
     36 H6          0.5123   -0.3556   -0.8948 H         1 <0>         0.0605
     37 H7          0.5293   -0.3651    0.8851 H         1 <0>         0.0598
     38 H8          0.6055   -2.2546   -0.0062 H         1 <0>         0.1218
     39 H9          0.3119   -4.6983   -0.0157 H         1 <0>         0.1201
     40 H10        -1.9505   -5.6680   -0.0084 H         1 <0>         0.1143
     41 H11        -3.6385   -1.7522    0.0270 H         1 <0>         0.1217
     42 H12        -3.6231   -6.5888    2.5335 H         1 <0>         0.0970
     43 H13        -3.3215   -4.8346    2.5253 H         1 <0>         0.1009
     44 H14        -5.0909   -5.3350    4.1415 H         1 <0>         0.0602
     45 H15        -5.7941   -4.4573    2.7619 H         1 <0>         0.0482
     46 H16        -7.0666   -6.3993    3.3233 H         1 <0>         0.3776
     47 H17        -6.8967   -2.9579   -3.7191 H         1 <0>         0.1266
     48 H18        -4.5256    0.4253   -4.7727 H         1 <0>         0.1283
     49 H19        -1.9787   -3.6018   -3.4682 H         1 <0>         0.3822
     50 H20        -1.9907    0.0896   -3.0046 H         1 <0>         0.0754
     51 H21        -1.3429   -1.2308   -4.0072 H         1 <0>         0.0668
     52 H22        -2.1151    0.1754   -4.7782 H         1 <0>         0.0647
     53 H23        -7.5262    0.0691   -4.0408 H         1 <0>         0.0734
     54 H24        -6.7681    0.1588   -5.6488 H         1 <0>         0.0691
     55 H25        -7.7584   -1.2534   -5.2093 H         1 <0>         0.0676
@<TRIPOS>BOND
     1    1    2 1
     2    1   33 1
     3    1   34 1
     4    1   35 1
     5    2    3 1
     6    2   36 1
     7    2   37 1
     8    3    4 1
     9    4    9 ar
    10    4    5 ar
    11    5    6 ar
    12    5   38 1
    13    6    7 ar
    14    6   39 1
    15    7    8 ar
    16    7   40 1
    17    8    9 ar
    18    8   10 1
    19    9   41 1
    20   10   11 1
    21   10   20 1
    22   10   12 1
    23   12   17 1
    24   12   13 2
    25   13   14 1
    26   13   24 1
    27   14   15 1
    28   14   16 1
    29   16   17 2
    30   17   18 1
    31   18   19 2
    32   18   20 am
    33   20   21 1
    34   21   22 1
    35   21   42 1
    36   21   43 1
    37   22   23 1
    38   22   44 1
    39   22   45 1
    40   23   46 1
    41   24   29 ar
    42   24   25 ar
    43   25   26 ar
    44   25   47 1
    45   26   27 ar
    46   26   32 1
    47   27   28 ar
    48   27   48 1
    49   28   29 ar
    50   28   31 1
    51   29   30 1
    52   30   49 1
    53   31   50 1
    54   31   51 1
    55   31   52 1
    56   32   53 1
    57   32   54 1
    58   32   55 1
@<TRIPOS>MOLECULE
ZINC09012628
   46    49     0     0     0
SMALL
USER_CHARGES

@<TRIPOS>ATOM
      1 C1          0.1621    1.5244    0.0659 C.3       1 <0>        -0.1244
      2 C2          0.1022    0.0187    0.0513 C.ar      1 <0>        -0.0465
      3 C3         -0.0389   -0.6531   -1.1505 C.ar      1 <0>        -0.1342
      4 C4         -0.0949   -2.0306   -1.1721 C.ar      1 <0>        -0.0501
      5 C5         -0.0083   -2.7491    0.0246 C.ar      1 <0>        -0.1741
      6 C6          0.1346   -2.0630    1.2349 C.ar      1 <0>        -0.0654
      7 C7          0.1943   -0.6854    1.2393 C.ar      1 <0>        -0.1336
      8 C8         -0.0677   -4.2195    0.0105 C.2       1 <0>         0.4214
      9 O1         -0.1921   -4.8112   -1.0406 O.2       1 <0>        -0.4347
     10 C9          0.0259   -4.9898    1.3023 C.3       1 <0>        -0.1808
     11 S1         -0.0776   -6.7673    0.9553 S.3       1 <0>         0.0973
     12 C10         0.0453   -7.5197    2.5438 C.2       1 <0>         0.1930
     13 N1          0.1746   -6.8960    3.6937 N.2       1 <0>        -0.2843
     14 N2          0.2344   -7.7477    4.6542 N.2       1 <0>        -0.2219
     15 C11         0.1469   -8.9689    4.1766 C.2       1 <0>         0.2020
     16 N3          0.0179   -8.8592    2.8100 N.pl3     1 <0>        -0.3053
     17 N4         -0.1082   -9.8776    1.9084 N.3       1 <0>        -0.5826
     18 C12         0.1760  -10.2189    4.9565 C.2       1 <0>         0.1461
     19 C13        -0.0110  -10.3347    6.3057 C.2       1 <0>        -0.1785
     20 C14         0.0973  -11.6947    6.6379 C.2       1 <0>         0.1248
     21 N5          0.3396  -12.3732    5.5356 N.2       1 <0>        -0.2470
     22 N6          0.3886  -11.4743    4.4627 N.pl3     1 <0>        -0.4774
     23 H1          0.5475  -11.7028    3.5335 H         1 <0>         0.4337
     24 C15        -0.0379  -12.2696    7.9997 C.ar      1 <0>        -0.0353
     25 C16        -0.3010  -11.4380    9.0861 C.ar      1 <0>        -0.0608
     26 C17        -0.4264  -11.9766   10.3503 C.ar      1 <0>        -0.1528
     27 C18        -0.2905  -13.3422   10.5402 C.ar      1 <0>         0.1125
     28 C19        -0.0288  -14.1728    9.4627 C.ar      1 <0>        -0.1551
     29 C20         0.0923  -13.6431    8.1943 C.ar      1 <0>        -0.0588
     30 F1         -0.4131  -13.8655   11.7797 F         1 <0>        -0.1354
     31 H2          1.1983    1.8478   -0.0333 H         1 <0>         0.0780
     32 H3         -0.4228    1.9193   -0.7648 H         1 <0>         0.0717
     33 H4         -0.2458    1.8952    1.0062 H         1 <0>         0.0721
     34 H5         -0.1056   -0.0968   -2.0739 H         1 <0>         0.1316
     35 H6         -0.2057   -2.5534   -2.1107 H         1 <0>         0.1364
     36 H7          0.2018   -2.6109    2.1632 H         1 <0>         0.1351
     37 H8          0.3090   -0.1543    2.1727 H         1 <0>         0.1320
     38 H9          0.9761   -4.7694    1.7887 H         1 <0>         0.1340
     39 H10        -0.7943   -4.6994    1.9588 H         1 <0>         0.1347
     40 H11         0.7953  -10.2426    1.6464 H         1 <0>         0.3713
     41 H12        -0.7026  -10.6086    2.2693 H         1 <0>         0.3757
     42 H13        -0.2065   -9.5251    6.9932 H         1 <0>         0.1690
     43 H14        -0.4063  -10.3733    8.9391 H         1 <0>         0.1417
     44 H15        -0.6303  -11.3327   11.1930 H         1 <0>         0.1432
     45 H16         0.0764  -15.2368    9.6150 H         1 <0>         0.1413
     46 H17         0.2922  -14.2917    7.3542 H         1 <0>         0.1406
@<TRIPOS>BOND
     1    1    2 1
     2    1   31 1
     3    1   32 1
     4    1   33 1
     5    2    7 ar
     6    2    3 ar
     7    3    4 ar
     8    3   34 1
     9    4    5 ar
    10    4   35 1
    11    5    6 ar
    12    5    8 1
    13    6    7 ar
    14    6   36 1
    15    7   37 1
    16    8    9 2
    17    8   10 1
    18   10   11 1
    19   10   38 1
    20   10   39 1
    21   11   12 1
    22   12   16 1
    23   12   13 2
    24   13   14 1
    25   14   15 2
    26   15   16 1
    27   15   18 1
    28   16   17 1
    29   17   40 1
    30   17   41 1
    31   18   22 1
    32   18   19 2
    33   19   20 1
    34   19   42 1
    35   20   21 2
    36   20   24 1
    37   21   22 1
    38   22   23 1
    39   24   29 ar
    40   24   25 ar
    41   25   26 ar
    42   25   43 1
    43   26   27 ar
    44   26   44 1
    45   27   28 ar
    46   27   30 1
    47   28   29 ar
    48   28   45 1
    49   29   46 1
@<TRIPOS>MOLECULE
ZINC10431285
   49    51     0     0     0
SMALL
USER_CHARGES
N-(4-amino-3,5-dichloro-phenyl)-3-(4-methyl-2-morpholino-6-oxo-1H-pyrimidin-5-yl)-propanamide
@<TRIPOS>ATOM
      1 C1          1.0599    3.5445   -0.0004 C.3       1 <0>        -0.1106
      2 C2          1.1088    2.0383   -0.0015 C.2       1 <0>         0.2117
      3 C3          2.3127    1.3959   -0.0111 C.2       1 <0>        -0.2892
      4 C4          2.3326   -0.0102   -0.0120 C.2       1 <0>         0.5397
      5 O1          3.3911   -0.6170   -0.0196 O.2       1 <0>        -0.5298
      6 N1          1.1579   -0.6758   -0.0037 N.am      1 <0>        -0.6358
      7 H1          1.1482   -1.6458   -0.0038 H         1 <0>         0.4156
      8 C5         -0.0119    0.0186    0.0052 C.2       1 <0>         0.5701
      9 N2         -0.0223    1.3368    0.0064 N.2       1 <0>        -0.5651
     10 N3         -1.1989   -0.6634    0.0135 N.pl3     1 <0>        -0.4758
     11 C6         -1.2368   -1.6680   -1.0592 C.3       1 <0>         0.0133
     12 C7         -2.5530   -2.4458   -0.9763 C.3       1 <0>         0.0649
     13 O2         -3.6481   -1.5293   -1.0538 O.3       1 <0>        -0.3778
     14 C8         -3.6428   -0.5374   -0.0236 C.3       1 <0>         0.0571
     15 C9         -2.3377    0.2597   -0.0968 C.3       1 <0>         0.0382
     16 C10         3.5995    2.1802   -0.0196 C.3       1 <0>        -0.0316
     17 C11         4.1104    2.3375    1.4140 C.3       1 <0>        -0.1320
     18 C12         5.3972    3.1218    1.4055 C.2       1 <0>         0.5160
     19 O3          5.8601    3.5162    0.3560 O.2       1 <0>        -0.5166
     20 N4          6.0336    3.3851    2.5640 N.am      1 <0>        -0.6703
     21 C13         7.2780    4.0294    2.5492 C.ar      1 <0>         0.1077
     22 C14         8.2414    3.6999    3.4932 C.ar      1 <0>        -0.0791
     23 C15         9.4703    4.3315    3.4760 C.ar      1 <0>        -0.0913
     24 C16         9.7379    5.3042    2.5207 C.ar      1 <0>         0.2296
     25 C17         8.7716    5.6373    1.5795 C.ar      1 <0>        -0.0908
     26 C18         7.5451    5.0011    1.5940 C.ar      1 <0>        -0.0544
     27 Cl1         9.1054    6.8521    0.3852 Cl        1 <0>        -0.0532
     28 N5         10.9813    5.9484    2.5061 N.pl3     1 <0>        -0.8631
     29 Cl2        10.6770    3.9148    4.6523 Cl        1 <0>        -0.0546
     30 H2          0.0210    3.8743    0.0073 H         1 <0>         0.0821
     31 H3          1.5681    3.9239    0.8861 H         1 <0>         0.0859
     32 H4          1.5552    3.9248   -0.8938 H         1 <0>         0.0892
     33 H5         -1.1685   -1.1703   -2.0265 H         1 <0>         0.0724
     34 H6         -0.3995   -2.3561   -0.9432 H         1 <0>         0.0954
     35 H7         -2.5972   -2.9866   -0.0310 H         1 <0>         0.0684
     36 H8         -2.6111   -3.1532   -1.8035 H         1 <0>         0.1126
     37 H9         -3.7187   -1.0227    0.9494 H         1 <0>         0.0653
     38 H10        -4.4887    0.1359   -0.1622 H         1 <0>         0.1127
     39 H11        -2.3040    0.9788    0.7217 H         1 <0>         0.1108
     40 H12        -2.2865    0.7888   -1.0484 H         1 <0>         0.0739
     41 H13         4.3438    1.6508   -0.6145 H         1 <0>         0.0854
     42 H14         3.4220    3.1648   -0.4522 H         1 <0>         0.0848
     43 H15         3.3661    2.8669    2.0089 H         1 <0>         0.0955
     44 H16         4.2878    1.3529    1.8466 H         1 <0>         0.0994
     45 H17         5.6302    3.1286    3.4081 H         1 <0>         0.4133
     46 H18         8.0315    2.9472    4.2387 H         1 <0>         0.1427
     47 H19         6.7939    5.2599    0.8624 H         1 <0>         0.1569
     48 H20        11.1680    6.6272    1.8389 H         1 <0>         0.4054
     49 H21        11.6557    5.7157    3.1633 H         1 <0>         0.4050
@<TRIPOS>BOND
     1    1    2 1
     2    1   30 1
     3    1   31 1
     4    1   32 1
     5    2    9 1
     6    2    3 2
     7    3    4 1
     8    3   16 1
     9    4    5 2
    10    4    6 am
    11    6    7 1
    12    6    8 1
    13    8    9 2
    14    8   10 1
    15   10   15 1
    16   10   11 1
    17   11   12 1
    18   11   33 1
    19   11   34 1
    20   12   13 1
    21   12   35 1
    22   12   36 1
    23   13   14 1
    24   14   15 1
    25   14   37 1
    26   14   38 1
    27   15   39 1
    28   15   40 1
    29   16   17 1
    30   16   41 1
    31   16   42 1
    32   17   18 1
    33   17   43 1
    34   17   44 1
    35   18   19 2
    36   18   20 am
    37   20   21 1
    38   20   45 1
    39   21   26 ar
    40   21   22 ar
    41   22   23 ar
    42   22   46 1
    43   23   24 ar
    44   23   29 1
    45   24   25 ar
    46   24   28 1
    47   25   26 ar
    48   25   27 1
    49   26   47 1
    50   28   48 1
    51   28   49 1
@<TRIPOS>MOLECULE
ZINC25777662
   56    59     0     0     0
SMALL
USER_CHARGES
1,8-diamino-6-methoxy-3-(1-piperidyl)-5-(p-tolylmethyl)-2,7-naphthyridine-4-carbonitrile
@<TRIPOS>ATOM
      1 C1          7.5786    1.8429    4.3403 C.3       1 <0>        -0.1156
      2 C2          6.8467    1.6764    3.0335 C.ar      1 <0>        -0.0919
      3 C3          6.1342    0.5187    2.7829 C.ar      1 <0>        -0.1201
      4 C4          5.4633    0.3658    1.5840 C.ar      1 <0>        -0.1127
      5 C5          5.5042    1.3710    0.6360 C.ar      1 <0>        -0.0746
      6 C6          6.2207    2.5268    0.8846 C.ar      1 <0>        -0.1035
      7 C7          6.8884    2.6813    2.0851 C.ar      1 <0>        -0.1239
      8 C8          4.7727    1.2044   -0.6710 C.3       1 <0>        -0.0442
      9 C9          3.3240    1.5764   -0.4868 C.ar      1 <0>        -0.2202
     10 C10         2.3624    0.5965   -0.2336 C.ar      1 <0>         0.1487
     11 C11         2.6809   -0.8268   -0.1308 C.ar      1 <0>        -0.1542
     12 C12         1.6228   -1.7130    0.1268 C.ar      1 <0>         0.4325
     13 N1          0.3794   -1.2730    0.2720 N.ar      1 <0>        -0.6106
     14 C13         0.0410    0.0012    0.1882 C.ar      1 <0>         0.5191
     15 C14         1.0101    0.9914   -0.0673 C.ar      1 <0>        -0.2842
     16 C15         0.6906    2.3580   -0.1643 C.ar      1 <0>         0.5090
     17 N2          1.6446    3.2412   -0.4065 N.ar      1 <0>        -0.6123
     18 C16         2.9176    2.8954   -0.5663 C.ar      1 <0>         0.4097
     19 O1          3.8399    3.8590   -0.8118 O.3       1 <0>        -0.2911
     20 C17         3.3679    5.2059   -0.8827 C.3       1 <0>         0.0344
     21 N3         -0.6176    2.7767   -0.0065 N.pl3     1 <0>        -0.8456
     22 N4         -1.2787    0.3662    0.3473 N.pl3     1 <0>        -0.8426
     23 N5          1.8807   -3.0664    0.2315 N.pl3     1 <0>        -0.4915
     24 C18         1.2866   -3.8037   -0.8909 C.3       1 <0>         0.0621
     25 C19         1.7131   -5.2718   -0.8215 C.3       1 <0>        -0.1188
     26 C20         1.2494   -5.8705    0.5094 C.3       1 <0>        -0.1223
     27 C21         1.8432   -5.0550    1.6613 C.3       1 <0>        -0.1189
     28 C22         1.4129   -3.5932    1.5199 C.3       1 <0>         0.0620
     29 C23         4.0235   -1.2998   -0.2868 C.1       1 <0>         0.2977
     30 N6          5.0886   -1.6750   -0.4106 N.1       1 <0>        -0.4243
     31 H1          7.4298    0.9468    4.9606 H         1 <0>         0.0633
     32 H2          7.1878    2.7244    4.8697 H         1 <0>         0.0670
     33 H3          8.6524    1.9791    4.1444 H         1 <0>         0.0682
     34 H4          6.1019   -0.2665    3.5238 H         1 <0>         0.1170
     35 H5          4.9068   -0.5389    1.3882 H         1 <0>         0.1211
     36 H6          6.2562    3.3103    0.1421 H         1 <0>         0.1228
     37 H7          7.4454    3.5857    2.2807 H         1 <0>         0.1184
     38 H8          5.2255    1.8586   -1.4306 H         1 <0>         0.0846
     39 H9          4.8434    0.1571   -0.9999 H         1 <0>         0.0969
     40 H10         4.2129    5.8803   -1.0854 H         1 <0>         0.0994
     41 H11         2.9002    5.4813    0.0741 H         1 <0>         0.0614
     42 H12         2.6273    5.2928   -1.6914 H         1 <0>         0.0614
     43 H13        -0.8660    3.8456   -0.0826 H         1 <0>         0.4333
     44 H14        -1.4100    2.0409    0.1952 H         1 <0>         0.4101
     45 H15        -1.5686    1.4251    0.2789 H         1 <0>         0.4093
     46 H16        -2.0420   -0.4015    0.5426 H         1 <0>         0.4336
     47 H17         0.1901   -3.7378   -0.8335 H         1 <0>         0.0532
     48 H18         1.6309   -3.3668   -1.8399 H         1 <0>         0.0764
     49 H19         1.2557   -5.8262   -1.6542 H         1 <0>         0.0725
     50 H20         2.8086   -5.3392   -0.8941 H         1 <0>         0.0736
     51 H21         0.1511   -5.8396    0.5625 H         1 <0>         0.0615
     52 H22         1.5907   -6.9138    0.5809 H         1 <0>         0.0669
     53 H23         1.4796   -5.4550    2.6193 H         1 <0>         0.0721
     54 H24         2.9408   -5.1207    1.6294 H         1 <0>         0.0730
     55 H25         1.8499   -3.0020    2.3382 H         1 <0>         0.0752
     56 H26         0.3158   -3.5283    1.5660 H         1 <0>         0.0557
@<TRIPOS>BOND
     1    1    2 1
     2    1   31 1
     3    1   32 1
     4    1   33 1
     5    2    7 ar
     6    2    3 ar
     7    3    4 ar
     8    3   34 1
     9    4    5 ar
    10    4   35 1
    11    5    6 ar
    12    5    8 1
    13    6    7 ar
    14    6   36 1
    15    7   37 1
    16    8    9 1
    17    8   38 1
    18    8   39 1
    19    9   18 ar
    20    9   10 ar
    21   10   15 ar
    22   10   11 ar
    23   11   12 ar
    24   11   29 1
    25   12   13 ar
    26   12   23 1
    27   13   14 ar
    28   14   15 ar
    29   14   22 1
    30   15   16 ar
    31   16   17 ar
    32   16   21 1
    33   17   18 ar
    34   18   19 1
    35   19   20 1
    36   20   40 1
    37   20   41 1
    38   20   42 1
    39   21   43 1
    40   21   44 1
    41   22   45 1
    42   22   46 1
    43   23   28 1
    44   23   24 1
    45   24   25 1
    46   24   47 1
    47   24   48 1
    48   25   26 1
    49   25   49 1
    50   25   50 1
    51   26   27 1
    52   26   51 1
    53   26   52 1
    54   27   28 1
    55   27   53 1
    56   27   54 1
    57   28   55 1
    58   28   56 1
    59   29   30 3
@<TRIPOS>MOLECULE
ZINC39147095
   61    64     0     0     0
SMALL
USER_CHARGES

@<TRIPOS>ATOM
      1 C1         -0.0127    1.0858    0.0080 C.3       1 <0>        -0.1107
      2 C2         -0.7416    1.5850   -1.2129 C.ar      1 <0>        -0.1115
      3 C3         -2.1123    1.7956   -1.1582 C.ar      1 <0>        -0.0961
      4 C4         -2.7980    2.2513   -2.2631 C.ar      1 <0>        -0.1283
      5 C5         -2.1118    2.5039   -3.4462 C.ar      1 <0>         0.0906
      6 N1         -2.4985    2.9523   -4.6893 N.pl3     1 <0>        -0.5952
      7 C6         -1.4105    3.0277   -5.5158 C.2       1 <0>         0.0580
      8 C7         -0.3071    2.6410   -4.8564 C.2       1 <0>        -0.1722
      9 C8         -0.7221    2.2892   -3.4963 C.ar      1 <0>        -0.0967
     10 C9         -0.0467    1.8321   -2.3634 C.ar      1 <0>        -0.0704
     11 C10         1.0930    2.5799   -5.4104 C.3       1 <0>        -0.0579
     12 C11         1.3839    1.1621   -5.9063 C.3       1 <0>         0.1328
     13 N2          2.7450    1.1027   -6.4449 N.am      1 <0>        -0.6171
     14 C12         3.0942    1.3719   -7.8447 C.3       1 <0>         0.1162
     15 C13         4.5068    0.7776   -8.0388 C.3       1 <0>        -0.1252
     16 H1          4.4518   -0.2468   -8.4072 H         1 <0>         0.1230
     17 C14         5.0666    0.8183   -6.5980 C.3       1 <0>        -0.1448
     18 C15         3.8353    0.8002   -5.7192 C.2       1 <0>         0.5194
     19 O1          3.8320    0.5471   -4.5331 O.2       1 <0>        -0.5211
     20 C16         5.3310    1.6366   -8.9629 C.2       1 <0>         0.5316
     21 O2          4.8541    2.6444   -9.4403 O.2       1 <0>        -0.5072
     22 N3          6.5979    1.2849   -9.2589 N.am      1 <0>        -0.7369
     23 C17         7.3991    2.1199  -10.1573 C.3       1 <0>         0.3656
     24 H2          6.8154    2.4255  -11.0256 H         1 <0>         0.1549
     25 N4          7.9404    3.3000   -9.4412 N.3       1 <0>        -0.5040
     26 N5          9.3785    3.4602   -9.4974 N.3       1 <0>        -0.4778
     27 C18        10.0934    2.1476   -9.5454 C.3       1 <0>         0.1064
     28 H3         10.1402    1.6807   -8.5616 H         1 <0>         0.0758
     29 S1          8.9379    1.2441  -10.6731 S.3       1 <0>        -0.2465
     30 C19        11.4867    2.2885  -10.1618 C.3       1 <0>        -0.0353
     31 C20        12.3188    3.2617   -9.3243 C.3       1 <0>        -0.1428
     32 C21        12.1736    0.9216  -10.1874 C.3       1 <0>        -0.1462
     33 C22        11.3610    2.8230  -11.5898 C.3       1 <0>        -0.1398
     34 H4          0.0021   -0.0041    0.0020 H         1 <0>         0.0674
     35 H5          1.0099    1.4631    0.0003 H         1 <0>         0.0645
     36 H6         -0.5229    1.4373    0.9048 H         1 <0>         0.0640
     37 H7         -2.6470    1.6001   -0.2404 H         1 <0>         0.1248
     38 H8         -3.8648    2.4114   -2.2107 H         1 <0>         0.1197
     39 H9         -1.4359    3.3505   -6.5461 H         1 <0>         0.1698
     40 H10        -3.4069    3.1803   -4.9417 H         1 <0>         0.4163
     41 H11         1.0206    1.6701   -2.3973 H         1 <0>         0.1221
     42 H12         1.1866    3.2812   -6.2397 H         1 <0>         0.0728
     43 H13         1.8050    2.8446   -4.6287 H         1 <0>         0.0735
     44 H14         1.2904    0.4608   -5.0771 H         1 <0>         0.0856
     45 H15         0.6720    0.8974   -6.6881 H         1 <0>         0.0811
     46 H16         2.3842    0.8824   -8.5114 H         1 <0>         0.0882
     47 H17         3.1080    2.4459   -8.0302 H         1 <0>         0.0943
     48 H18         5.6889   -0.0557   -6.4057 H         1 <0>         0.1113
     49 H19         5.6336    1.7348   -6.4348 H         1 <0>         0.1058
     50 H20         6.9793    0.4789   -8.8771 H         1 <0>         0.4084
     51 H21         7.6105    3.3273   -8.4880 H         1 <0>         0.3288
     52 H22         9.7098    4.0245   -8.7293 H         1 <0>         0.3509
     53 H23        12.4084    2.8809   -8.3070 H         1 <0>         0.0532
     54 H24        13.3114    3.3621   -9.7634 H         1 <0>         0.0671
     55 H25        11.8295    4.2355   -9.3060 H         1 <0>         0.0648
     56 H26        11.5808    0.2282  -10.7840 H         1 <0>         0.0599
     57 H27        13.1662    1.0219  -10.6265 H         1 <0>         0.0675
     58 H28        12.2631    0.5408   -9.1701 H         1 <0>         0.0558
     59 H29        10.8717    3.7968  -11.5715 H         1 <0>         0.0720
     60 H30        12.3536    2.9233  -12.0289 H         1 <0>         0.0529
     61 H31        10.7682    2.1296  -12.1864 H         1 <0>         0.0669
@<TRIPOS>BOND
     1    1   34 1
     2    1   35 1
     3    1   36 1
     4    1    2 1
     5    2    3 ar
     6    2   10 ar
     7    3    4 ar
     8    3   37 1
     9    4    5 ar
    10    4   38 1
    11    5    6 1
    12    5    9 ar
    13    6   40 1
    14    6    7 1
    15    7    8 2
    16    7   39 1
    17    8    9 1
    18    8   11 1
    19    9   10 ar
    20   10   41 1
    21   11   12 1
    22   11   42 1
    23   11   43 1
    24   12   13 1
    25   12   44 1
    26   12   45 1
    27   13   18 am
    28   13   14 1
    29   14   15 1
    30   14   46 1
    31   14   47 1
    32   15   16 1
    33   15   17 1
    34   15   20 1
    35   17   18 1
    36   17   48 1
    37   17   49 1
    38   18   19 2
    39   20   21 2
    40   20   22 am
    41   22   23 1
    42   22   50 1
    43   23   24 1
    44   23   29 1
    45   23   25 1
    46   25   26 1
    47   25   51 1
    48   26   27 1
    49   26   52 1
    50   27   28 1
    51   27   29 1
    52   27   30 1
    53   30   31 1
    54   30   32 1
    55   30   33 1
    56   31   53 1
    57   31   54 1
    58   31   55 1
    59   32   56 1
    60   32   57 1
    61   32   58 1
    62   33   59 1
    63   33   60 1
    64   33   61 1
@<TRIPOS>MOLECULE
ZINC20611256
   56    60     0     0     0
SMALL
USER_CHARGES

@<TRIPOS>ATOM
      1 C1         -0.0173    1.4248    0.0099 C.3       1 <0>         0.0276
      2 O1          0.0021   -0.0041    0.0020 O.3       1 <0>        -0.3186
      3 C2         -1.2011   -0.6379    0.0101 C.ar      1 <0>         0.1066
      4 C3         -2.3774    0.1076    0.0195 C.ar      1 <0>        -0.1759
      5 C4         -3.6032   -0.5189    0.0278 C.ar      1 <0>        -0.0833
      6 C5         -3.6762   -1.9074    0.0266 C.ar      1 <0>         0.0714
      7 C6         -2.4889   -2.6653    0.0167 C.ar      1 <0>        -0.0453
      8 C7         -1.2512   -2.0168    0.0032 C.ar      1 <0>        -0.1160
      9 C8         -2.9090   -4.0598    0.0186 C.2       1 <0>        -0.2002
     10 C9         -4.2581   -4.0776    0.0275 C.2       1 <0>         0.1037
     11 N1         -4.7310   -2.7986    0.0333 N.pl3     1 <0>        -0.5560
     12 H1         -5.6690   -2.5515    0.0416 H         1 <0>         0.4203
     13 C10        -5.0604   -5.3580    0.0266 C.3       1 <0>         0.2305
     14 H2         -5.4304   -5.5589    1.0320 H         1 <0>         0.1535
     15 N2         -4.1851   -6.4583   -0.4067 N.4       1 <0>        -0.5011
     16 C11        -2.9618   -6.4856    0.4060 C.3       1 <0>        -0.0053
     17 C12        -2.0602   -5.3055    0.0154 C.3       1 <0>        -0.0581
     18 C13        -6.2227   -5.2264   -0.9235 C.2       1 <0>        -0.5423
     19 C14        -7.5031   -5.2447   -0.4559 C.2       1 <0>         0.5260
     20 N3         -8.5461   -5.1234   -1.3390 N.am      1 <0>        -0.6555
     21 C15        -8.3112   -4.9877   -2.6570 C.2       1 <0>         0.7048
     22 N4         -7.0547   -4.9679   -3.1380 N.am      1 <0>        -0.5560
     23 C16        -6.0015   -5.0773   -2.3042 C.2       1 <0>         0.5736
     24 O2         -4.8652   -5.0532   -2.7445 O.2       1 <0>        -0.5758
     25 C17        -6.8298   -4.8198   -4.5781 C.3       1 <0>         0.1492
     26 C18        -7.4328   -3.4971   -5.0551 C.3       1 <0>        -0.1353
     27 C19        -7.1979   -3.3424   -6.5590 C.3       1 <0>        -0.1127
     28 C20        -7.8632   -4.5033   -7.3011 C.3       1 <0>        -0.1219
     29 C21        -7.2602   -5.8260   -6.8241 C.3       1 <0>        -0.1127
     30 C22        -7.4951   -5.9807   -5.3202 C.3       1 <0>        -0.1343
     31 O3         -9.2482   -4.8819   -3.4246 O.2       1 <0>        -0.5445
     32 O4         -7.7429   -5.3815    0.8654 O.3       1 <0>        -0.6467
     33 H3          1.0053    1.8021    0.0021 H         1 <0>         0.1000
     34 H4         -0.5445    1.7859   -0.8732 H         1 <0>         0.0547
     35 H5         -0.5275    1.7763    0.9067 H         1 <0>         0.0548
     36 H6         -2.3275    1.1865    0.0207 H         1 <0>         0.1336
     37 H7         -4.5093    0.0688    0.0356 H         1 <0>         0.1257
     38 H8         -0.3375   -2.5925   -0.0085 H         1 <0>         0.1304
     39 H9         -4.6743   -7.3347   -0.3038 H         1 <0>         0.4256
     40 H10        -3.2248   -6.4081    1.4610 H         1 <0>         0.1270
     41 H11        -2.4310   -7.4216    0.2320 H         1 <0>         0.1300
     42 H12        -1.6480   -5.4693   -0.9803 H         1 <0>         0.0922
     43 H13        -1.2512   -5.2033    0.7387 H         1 <0>         0.1093
     44 H14        -5.7588   -4.8250   -4.7809 H         1 <0>         0.1096
     45 H15        -8.5038   -3.4919   -4.8522 H         1 <0>         0.0877
     46 H16        -6.9588   -2.6700   -4.5264 H         1 <0>         0.0585
     47 H17        -7.6275   -2.4001   -6.8989 H         1 <0>         0.0661
     48 H18        -6.1269   -3.3476   -6.7619 H         1 <0>         0.0620
     49 H19        -8.9341   -4.4981   -7.0983 H         1 <0>         0.0658
     50 H20        -7.6958   -4.3931   -8.3726 H         1 <0>         0.0634
     51 H21        -7.7341   -6.6530   -7.3528 H         1 <0>         0.0664
     52 H22        -6.1892   -5.8312   -7.0270 H         1 <0>         0.0620
     53 H23        -7.0655   -6.9230   -4.9803 H         1 <0>         0.0590
     54 H24        -8.5660   -5.9755   -5.1173 H         1 <0>         0.0880
     55 H25        -9.4589   -5.1358   -1.0110 H         1 <0>         0.4264
     56 H26        -3.9391   -6.3274   -1.3765 H         1 <0>         0.4319
@<TRIPOS>BOND
     1    1    2 1
     2    1   33 1
     3    1   34 1
     4    1   35 1
     5    2    3 1
     6    3    8 ar
     7    3    4 ar
     8    4    5 ar
     9    4   36 1
    10    5    6 ar
    11    5   37 1
    12    6   11 1
    13    6    7 ar
    14    7    8 ar
    15    7    9 1
    16    8   38 1
    17    9   17 1
    18    9   10 2
    19   10   11 1
    20   10   13 1
    21   11   12 1
    22   13   14 1
    23   13   15 1
    24   13   18 1
    25   15   16 1
    26   15   39 1
    27   15   56 1
    28   16   17 1
    29   16   40 1
    30   16   41 1
    31   17   42 1
    32   17   43 1
    33   18   23 1
    34   18   19 2
    35   19   32 1
    36   19   20 1
    37   20   55 1
    38   20   21 am
    39   21   31 2
    40   21   22 am
    41   22   23 am
    42   22   25 1
    43   23   24 2
    44   25   30 1
    45   25   26 1
    46   25   44 1
    47   26   27 1
    48   26   45 1
    49   26   46 1
    50   27   28 1
    51   27   47 1
    52   27   48 1
    53   28   29 1
    54   28   49 1
    55   28   50 1
    56   29   30 1
    57   29   51 1
    58   29   52 1
    59   30   53 1
    60   30   54 1
@<TRIPOS>MOLECULE
ZINC59385060
   48    50     0     0     0
SMALL
USER_CHARGES

@<TRIPOS>ATOM
      1 C1         -0.0392    1.4911    0.0903 C.3       1 <0>        -0.1328
      2 C2         -0.0088   -0.0144    0.0293 C.2       1 <0>         0.1736
      3 C3         -1.1702   -0.7026    0.0326 C.2       1 <0>        -0.2471
      4 C4         -1.0942   -2.2146   -0.0299 C.3       1 <0>         0.2256
      5 H1         -1.6476   -2.5427   -0.9098 H         1 <0>         0.1053
      6 N1          0.2498   -2.8133   -0.0896 N.pl3     1 <0>        -0.6446
      7 C5          1.3185   -1.9922   -0.0851 C.2       1 <0>         0.5585
      8 S1          2.8872   -2.6743   -0.1547 S.2       1 <0>        -0.5956
      9 N2          1.1932   -0.6601   -0.0341 N.pl3     1 <0>        -0.5996
     10 C6         -1.7939   -2.7655    1.1859 C.ar      1 <0>        -0.1307
     11 C7         -1.1865   -2.6888    2.4256 C.ar      1 <0>        -0.0800
     12 C8         -1.8256   -3.1935    3.5415 C.ar      1 <0>        -0.1442
     13 C9         -3.0779   -3.7773    3.4176 C.ar      1 <0>         0.1206
     14 C10        -3.6854   -3.8526    2.1726 C.ar      1 <0>        -0.1402
     15 C11        -3.0444   -3.3418    1.0606 C.ar      1 <0>        -0.0762
     16 O1         -3.7085   -4.2749    4.5138 O.3       1 <0>        -0.4974
     17 C12        -2.4172   -0.0340    0.0929 C.2       1 <0>         0.6142
     18 O2         -3.0772    0.1162   -0.9196 O.2       1 <0>        -0.4826
     19 N3         -2.8735    0.4360    1.2708 N.am      1 <0>        -0.5781
     20 N4         -4.1530    1.0010    1.3512 N.2       1 <0>        -0.1985
     21 C13        -4.5925    1.4537    2.4856 C.2       1 <0>         0.1075
     22 C14        -5.9385    2.0480    2.5702 C.ar      1 <0>        -0.0952
     23 C15        -6.4131    2.5416    3.7876 C.ar      1 <0>        -0.0510
     24 C16        -7.6733    3.0969    3.8597 C.ar      1 <0>        -0.1640
     25 C17        -8.4708    3.1674    2.7302 C.ar      1 <0>        -0.0600
     26 C18        -8.0127    2.6825    1.5197 C.ar      1 <0>        -0.2180
     27 C19        -6.7473    2.1264    1.4282 C.ar      1 <0>         0.1646
     28 O3         -6.2941    1.6548    0.2379 O.3       1 <0>        -0.2760
     29 C20        -7.1739    1.7686   -0.8824 C.3       1 <0>         0.0234
     30 H2          0.9805    1.8760    0.0738 H         1 <0>         0.0887
     31 H3         -0.5878    1.8785   -0.7682 H         1 <0>         0.1009
     32 H4         -0.5322    1.8076    1.0095 H         1 <0>         0.0929
     33 H5          0.3633   -3.7758   -0.1308 H         1 <0>         0.4485
     34 H6          2.0013   -0.1237   -0.0383 H         1 <0>         0.4419
     35 H7         -0.2115   -2.2342    2.5216 H         1 <0>         0.1202
     36 H8         -1.3504   -3.1339    4.5096 H         1 <0>         0.1326
     37 H9         -4.6603   -4.3067    2.0735 H         1 <0>         0.1337
     38 H10        -3.5188   -3.3963    0.0918 H         1 <0>         0.1313
     39 H11        -4.2708   -3.6334    4.9692 H         1 <0>         0.3942
     40 H12        -2.3160    0.3832    2.0628 H         1 <0>         0.3809
     41 H13        -3.9719    1.3948    3.3675 H         1 <0>         0.1183
     42 H14        -5.7942    2.4881    4.6711 H         1 <0>         0.1342
     43 H15        -8.0399    3.4780    4.8014 H         1 <0>         0.1294
     44 H16        -9.4567    3.6035    2.7954 H         1 <0>         0.1277
     45 H17        -8.6407    2.7408    0.6430 H         1 <0>         0.1320
     46 H18        -8.0928    1.2183   -0.6801 H         1 <0>         0.0538
     47 H19        -7.4096    2.8188   -1.0540 H         1 <0>         0.0542
     48 H20        -6.6903    1.3553   -1.7675 H         1 <0>         0.1027
@<TRIPOS>BOND
     1    1    2 1
     2    1   30 1
     3    1   31 1
     4    1   32 1
     5    2    9 1
     6    2    3 2
     7    3    4 1
     8    3   17 1
     9    4    5 1
    10    4    6 1
    11    4   10 1
    12    6    7 1
    13    6   33 1
    14    7    8 2
    15    7    9 1
    16    9   34 1
    17   10   15 ar
    18   10   11 ar
    19   11   12 ar
    20   11   35 1
    21   12   13 ar
    22   12   36 1
    23   13   14 ar
    24   13   16 1
    25   14   15 ar
    26   14   37 1
    27   15   38 1
    28   16   39 1
    29   17   18 2
    30   17   19 am
    31   19   20 1
    32   19   40 1
    33   20   21 2
    34   21   22 1
    35   21   41 1
    36   22   27 ar
    37   22   23 ar
    38   23   24 ar
    39   23   42 1
    40   24   25 ar
    41   24   43 1
    42   25   26 ar
    43   25   44 1
    44   26   27 ar
    45   26   45 1
    46   27   28 1
    47   28   29 1
    48   29   46 1
    49   29   47 1
    50   29   48 1
@<TRIPOS>MOLECULE
ZINC08644967
   54    57     0     0     0
SMALL
USER_CHARGES
N-(benzylcarbamoyl)-2-[4-methyl-4-(1-naphthyl)-2,5-dioxo-imidazolidin-1-yl]-acetamide
@<TRIPOS>ATOM
      1 C1         -3.2788    1.2125    1.3080 C.3       1 <0>        -0.1587
      2 C2         -2.4967    0.9517    0.0191 C.3       1 <0>         0.1731
      3 C3         -3.4121    1.0194   -1.1871 C.2       1 <0>         0.5407
      4 O1         -4.0562    1.9745   -1.5649 O.2       1 <0>        -0.4448
      5 N1         -3.3619   -0.2033   -1.7517 N.am      1 <0>        -0.5624
      6 C4         -2.5504   -1.0255   -1.0769 C.2       1 <0>         0.7120
      7 O2         -2.3434   -2.1805   -1.3936 O.2       1 <0>        -0.5325
      8 N2         -1.9894   -0.4310   -0.0084 N.am      1 <0>        -0.7137
      9 C5         -4.1036   -0.5847   -2.9561 C.3       1 <0>         0.1024
     10 C6         -5.4515   -1.1327   -2.5636 C.2       1 <0>         0.5058
     11 O3         -5.7618   -1.1981   -1.3935 O.2       1 <0>        -0.4515
     12 N3         -6.3119   -1.5500   -3.5133 N.am      1 <0>        -0.6873
     13 C7         -7.5173   -2.0400   -3.1623 C.2       1 <0>         0.6951
     14 O4         -7.8284   -2.1057   -1.9892 O.2       1 <0>        -0.5259
     15 N4         -8.3777   -2.4573   -4.1120 N.am      1 <0>        -0.7321
     16 C8         -9.6880   -2.9901   -3.7304 C.3       1 <0>         0.1777
     17 C9        -10.4509   -3.3824   -4.9693 C.ar      1 <0>        -0.1139
     18 C10       -11.2710   -2.4629   -5.5962 C.ar      1 <0>        -0.0986
     19 C11       -11.9667   -2.8212   -6.7357 C.ar      1 <0>        -0.1218
     20 C12       -11.8510   -4.1023   -7.2421 C.ar      1 <0>        -0.1090
     21 C13       -11.0354   -5.0235   -6.6119 C.ar      1 <0>        -0.1217
     22 C14       -10.3352   -4.6635   -5.4757 C.ar      1 <0>        -0.0986
     23 C15        -1.3632    1.9351   -0.1195 C.ar      1 <0>        -0.0909
     24 C16        -0.0775    1.4927   -0.1832 C.ar      1 <0>        -0.0916
     25 C17         0.9829    2.3866   -0.3172 C.ar      1 <0>        -0.1195
     26 C18         0.7644    3.7286   -0.3828 C.ar      1 <0>        -0.0906
     27 C19        -0.5489    4.2232   -0.3147 C.ar      1 <0>        -0.0501
     28 C20        -1.6277    3.3138   -0.1783 C.ar      1 <0>        -0.0352
     29 C21        -2.9415    3.8085   -0.1100 C.ar      1 <0>        -0.1087
     30 C22        -3.1600    5.1501   -0.1761 C.ar      1 <0>        -0.1118
     31 C23        -2.0993    6.0443   -0.3108 C.ar      1 <0>        -0.1101
     32 C24        -0.8142    5.6019   -0.3796 C.ar      1 <0>        -0.1099
     33 H1         -3.5836    2.2584    1.3427 H         1 <0>         0.0946
     34 H2         -4.1630    0.5755    1.3316 H         1 <0>         0.0784
     35 H3         -2.6472    0.9894    2.1678 H         1 <0>         0.0864
     36 H4         -1.3709   -0.8341    0.6208 H         1 <0>         0.4436
     37 H5         -4.2383    0.2902   -3.5922 H         1 <0>         0.1351
     38 H6         -3.5459   -1.3470   -3.5001 H         1 <0>         0.1376
     39 H7         -6.0636   -1.4976   -4.4495 H         1 <0>         0.4122
     40 H8         -8.1294   -2.4050   -5.0482 H         1 <0>         0.4006
     41 H9         -9.5533   -3.8649   -3.0944 H         1 <0>         0.0799
     42 H10       -10.2457   -2.2278   -3.1864 H         1 <0>         0.0799
     43 H11       -11.3649   -1.4634   -5.1981 H         1 <0>         0.1249
     44 H12       -12.6037   -2.1014   -7.2283 H         1 <0>         0.1254
     45 H13       -12.3974   -4.3834   -8.1302 H         1 <0>         0.1245
     46 H14       -10.9449   -6.0243   -7.0075 H         1 <0>         0.1254
     47 H15        -9.6980   -5.3832   -4.9833 H         1 <0>         0.1250
     48 H16         0.1234    0.4327   -0.1335 H         1 <0>         0.1265
     49 H17         1.9935    2.0091   -0.3694 H         1 <0>         0.1288
     50 H18         1.5961    4.4096   -0.4870 H         1 <0>         0.1311
     51 H19        -3.7732    3.1276   -0.0053 H         1 <0>         0.1466
     52 H20        -4.1705    5.5276   -0.1231 H         1 <0>         0.1247
     53 H21        -2.3003    7.1042   -0.3609 H         1 <0>         0.1244
     54 H22        -0.0024    6.3065   -0.4839 H         1 <0>         0.1286
@<TRIPOS>BOND
     1    1    2 1
     2    1   33 1
     3    1   34 1
     4    1   35 1
     5    2    8 1
     6    2    3 1
     7    2   23 1
     8    3    4 2
     9    3    5 am
    10    5    6 am
    11    5    9 1
    12    6    7 2
    13    6    8 am
    14    8   36 1
    15    9   10 1
    16    9   37 1
    17    9   38 1
    18   10   11 2
    19   10   12 am
    20   12   13 am
    21   12   39 1
    22   13   14 2
    23   13   15 am
    24   15   16 1
    25   15   40 1
    26   16   17 1
    27   16   41 1
    28   16   42 1
    29   17   22 ar
    30   17   18 ar
    31   18   19 ar
    32   18   43 1
    33   19   20 ar
    34   19   44 1
    35   20   21 ar
    36   20   45 1
    37   21   22 ar
    38   21   46 1
    39   22   47 1
    40   23   28 ar
    41   23   24 ar
    42   24   25 ar
    43   24   48 1
    44   25   26 ar
    45   25   49 1
    46   26   27 ar
    47   26   50 1
    48   27   32 ar
    49   27   28 ar
    50   28   29 ar
    51   29   30 ar
    52   29   51 1
    53   30   31 ar
    54   30   52 1
    55   31   32 ar
    56   31   53 1
    57   32   54 1
@<TRIPOS>MOLECULE
ZINC17518552
   60    62     0     0     0
SMALL
USER_CHARGES
4-tert-butyl-N'-[3-(1,3-dioxo-2,4-diazaspiro[4.5]decan-2-yl)propanoyl]benzohydrazide
@<TRIPOS>ATOM
      1 C1         -5.8281    3.6329    1.2994 C.3       1 <0>        -0.1406
      2 C2         -5.0366    4.0206    0.0488 C.3       1 <0>        -0.0355
      3 C3         -4.7775    5.5285    0.0563 C.3       1 <0>        -0.1475
      4 C4         -5.8395    3.6474   -1.1990 C.3       1 <0>        -0.1406
      5 C5         -3.7214    3.2849    0.0385 C.ar      1 <0>        -0.0362
      6 C6         -3.7062    1.9014    0.0304 C.ar      1 <0>        -0.1228
      7 C7         -2.5057    1.2219    0.0206 C.ar      1 <0>        -0.0493
      8 C8         -1.3047    1.9331    0.0187 C.ar      1 <0>        -0.1375
      9 C9         -1.3271    3.3286    0.0323 C.ar      1 <0>        -0.0808
     10 C10        -2.5345    3.9960    0.0368 C.ar      1 <0>        -0.1271
     11 C11        -0.0144    1.2113    0.0087 C.2       1 <0>         0.5641
     12 O1          0.0021   -0.0041    0.0020 O.2       1 <0>        -0.5346
     13 N1          1.1435    1.9010    0.0013 N.am      1 <0>        -0.5205
     14 N2          2.3661    1.2171   -0.0140 N.am      1 <0>        -0.5197
     15 C12         3.5240    1.9068   -0.0213 C.2       1 <0>         0.5252
     16 O2          3.5076    3.1195   -0.0147 O.2       1 <0>        -0.5343
     17 C13         4.8392    1.1712   -0.0379 C.3       1 <0>        -0.1490
     18 C14         5.9884    2.1811   -0.0434 C.3       1 <0>         0.1352
     19 N3          7.2669    1.4660   -0.0595 N.am      1 <0>        -0.5781
     20 C15         7.9180    1.1018   -1.1835 C.2       1 <0>         0.5300
     21 O3          7.5706    1.2966   -2.3286 O.2       1 <0>        -0.4558
     22 C16         9.1721    0.4003   -0.7145 C.3       1 <0>         0.1256
     23 C17        10.4106    1.1452   -1.2002 C.3       1 <0>        -0.1151
     24 C18        11.6683    0.4358   -0.6918 C.3       1 <0>        -0.1174
     25 C19        11.6837   -1.0046   -1.2079 C.3       1 <0>        -0.1257
     26 C20        10.4483   -1.7453   -0.6921 C.3       1 <0>        -0.1175
     27 C21         9.1856   -1.0448   -1.2004 C.3       1 <0>        -0.1140
     28 N4          9.0821    0.4506    0.7502 N.am      1 <0>        -0.7148
     29 C22         7.9369    1.0978    1.0395 C.2       1 <0>         0.7011
     30 O4          7.5532    1.3198    2.1711 O.2       1 <0>        -0.5365
     31 H1         -5.2561    3.8988    2.1883 H         1 <0>         0.0581
     32 H2         -6.7794    4.1650    1.3068 H         1 <0>         0.0622
     33 H3         -6.0127    2.5587    1.2940 H         1 <0>         0.0590
     34 H4         -4.2136    5.8047   -0.8347 H         1 <0>         0.0605
     35 H5         -5.7287    6.0606    0.0637 H         1 <0>         0.0618
     36 H6         -4.2055    5.7944    0.9452 H         1 <0>         0.0605
     37 H7         -6.0241    2.5731   -1.2044 H         1 <0>         0.0590
     38 H8         -6.7908    4.1795   -1.1916 H         1 <0>         0.0622
     39 H9         -5.2756    3.9236   -2.0900 H         1 <0>         0.0580
     40 H10        -4.6362    1.3523    0.0322 H         1 <0>         0.1321
     41 H11        -2.4951    0.1419    0.0139 H         1 <0>         0.1385
     42 H12        -0.4013    3.8847    0.0354 H         1 <0>         0.1264
     43 H13        -2.5533    5.0758    0.0427 H         1 <0>         0.1368
     44 H14         1.1303    2.8709    0.0067 H         1 <0>         0.4324
     45 H15         2.3793    0.2472   -0.0193 H         1 <0>         0.4343
     46 H16         4.9139    0.5406    0.8481 H         1 <0>         0.1107
     47 H17         4.8969    0.5501   -0.9318 H         1 <0>         0.1077
     48 H18         5.9137    2.8117   -0.9293 H         1 <0>         0.1075
     49 H19         5.9307    2.8022    0.8505 H         1 <0>         0.1101
     50 H20        10.4194    1.1629   -2.2901 H         1 <0>         0.0910
     51 H21        10.3918    2.1669   -0.8210 H         1 <0>         0.0753
     52 H22        11.6676    0.4314    0.3982 H         1 <0>         0.0649
     53 H23        12.5528    0.9607   -1.0526 H         1 <0>         0.0755
     54 H24        12.5833   -1.5078   -0.8534 H         1 <0>         0.0697
     55 H25        11.6757   -0.9999   -2.2978 H         1 <0>         0.0691
     56 H26        10.4516   -1.7427    0.3979 H         1 <0>         0.0649
     57 H27        10.4639   -2.7736   -1.0533 H         1 <0>         0.0754
     58 H28         8.3052   -1.5636   -0.8211 H         1 <0>         0.0750
     59 H29         9.1754   -1.0615   -2.2902 H         1 <0>         0.0910
     60 H30         9.7228    0.0922    1.3842 H         1 <0>         0.4402
@<TRIPOS>BOND
     1    1    2 1
     2    1   31 1
     3    1   32 1
     4    1   33 1
     5    2    3 1
     6    2    4 1
     7    2    5 1
     8    3   34 1
     9    3   35 1
    10    3   36 1
    11    4   37 1
    12    4   38 1
    13    4   39 1
    14    5   10 ar
    15    5    6 ar
    16    6    7 ar
    17    6   40 1
    18    7    8 ar
    19    7   41 1
    20    8    9 ar
    21    8   11 1
    22    9   10 ar
    23    9   42 1
    24   10   43 1
    25   11   12 2
    26   11   13 am
    27   13   14 1
    28   13   44 1
    29   14   15 am
    30   14   45 1
    31   15   16 2
    32   15   17 1
    33   17   18 1
    34   17   46 1
    35   17   47 1
    36   18   19 1
    37   18   48 1
    38   18   49 1
    39   19   29 am
    40   19   20 am
    41   20   21 2
    42   20   22 1
    43   22   27 1
    44   22   23 1
    45   22   28 1
    46   23   24 1
    47   23   50 1
    48   23   51 1
    49   24   25 1
    50   24   52 1
    51   24   53 1
    52   25   26 1
    53   25   54 1
    54   25   55 1
    55   26   27 1
    56   26   56 1
    57   26   57 1
    58   27   58 1
    59   27   59 1
    60   28   29 am
    61   28   60 1
    62   29   30 2
@<TRIPOS>MOLECULE
ZINC22616770
   49    52     0     0     0
SMALL
USER_CHARGES

@<TRIPOS>ATOM
      1 C1         -0.2123    1.7072    0.2418 C.3       1 <0>        -0.1063
      2 C2         -0.2765    0.2029    0.1785 C.2       1 <0>        -0.0616
      3 C3         -0.4213   -0.4218   -1.0010 C.2       1 <0>        -0.1619
      4 S1         -0.4412   -2.1477   -0.5544 S.3       1 <0>         0.1513
      5 C4         -0.2546   -1.9793    1.2020 C.2       1 <0>         0.1028
      6 C5         -0.1766   -0.5877    1.3911 C.2       1 <0>        -0.2393
      7 C6         -0.0154   -0.1552    2.7478 C.2       1 <0>         0.5595
      8 O1          0.0577    1.0320    3.0145 O.2       1 <0>        -0.5148
      9 N1          0.0537   -1.0805    3.7228 N.am      1 <0>        -0.6264
     10 H1          0.1628   -0.7938    4.6430 H         1 <0>         0.4236
     11 C7         -0.0268   -2.4070    3.4445 C.2       1 <0>         0.4254
     12 N2         -0.1830   -2.8325    2.2195 N.2       1 <0>        -0.4713
     13 C8          0.0551   -3.4058    4.5701 C.3       1 <0>        -0.0478
     14 H2         -0.2649   -2.9334    5.4989 H         1 <0>         0.1319
     15 C9          1.4982   -3.8924    4.7162 C.3       1 <0>        -0.1484
     16 S2         -1.0250   -4.8170    4.2060 S.3       1 <0>         0.1130
     17 C10        -0.9350   -5.8087    5.6596 C.2       1 <0>         0.1734
     18 N3         -0.2372   -5.5449    6.7411 N.2       1 <0>        -0.2908
     19 N4         -0.3988   -6.4783    7.6095 N.2       1 <0>        -0.2386
     20 C11        -1.2098   -7.3958    7.1359 C.2       1 <0>         0.2070
     21 N5         -1.5826   -6.9925    5.8744 N.pl3     1 <0>        -0.3020
     22 N6         -2.4227   -7.6417    5.0149 N.3       1 <0>        -0.5824
     23 C12        -1.6441   -8.6266    7.8289 C.ar      1 <0>        -0.0666
     24 C13        -1.6157   -9.8530    7.1639 C.ar      1 <0>        -0.0658
     25 C14        -2.0224  -10.9986    7.8160 C.ar      1 <0>        -0.1530
     26 C15        -2.4593  -10.9366    9.1280 C.ar      1 <0>        -0.0565
     27 C16        -2.4922   -9.7274    9.7968 C.ar      1 <0>        -0.2074
     28 C17        -2.0808   -8.5691    9.1580 C.ar      1 <0>         0.1757
     29 O2         -2.1066   -7.3813    9.8164 O.3       1 <0>        -0.2959
     30 C18        -2.5640   -7.3998   11.1701 C.3       1 <0>         0.0235
     31 C19        -0.5393    0.1894   -2.3735 C.3       1 <0>        -0.0687
     32 H3          0.8242    2.0309    0.1474 H         1 <0>         0.0728
     33 H4         -0.8007    2.1305   -0.5723 H         1 <0>         0.0685
     34 H5         -0.6140    2.0483    1.1959 H         1 <0>         0.0826
     35 H6          2.1472   -3.0444    4.9349 H         1 <0>         0.0738
     36 H7          1.5574   -4.6148    5.5303 H         1 <0>         0.0942
     37 H8          1.8182   -4.3647    3.7874 H         1 <0>         0.0802
     38 H9         -1.9262   -8.3408    4.4830 H         1 <0>         0.3673
     39 H10        -3.2017   -8.0496    5.5097 H         1 <0>         0.3784
     40 H11        -1.2762   -9.9052    6.1400 H         1 <0>         0.1256
     41 H12        -2.0002  -11.9475    7.3007 H         1 <0>         0.1344
     42 H13        -2.7764  -11.8378    9.6316 H         1 <0>         0.1340
     43 H14        -2.8349   -9.6863   10.8201 H         1 <0>         0.1388
     44 H15        -3.5868   -7.7752   11.2030 H         1 <0>         0.0575
     45 H16        -1.9195   -8.0491   11.7626 H         1 <0>         0.0603
     46 H17        -2.5347   -6.3891   11.5774 H         1 <0>         0.1048
     47 H18         0.4538    0.2982   -2.8093 H         1 <0>         0.0823
     48 H19        -1.1458   -0.4569   -3.0081 H         1 <0>         0.0769
     49 H20        -1.0113    1.1688   -2.2957 H         1 <0>         0.0857
@<TRIPOS>BOND
     1    1    2 1
     2    1   32 1
     3    1   33 1
     4    1   34 1
     5    2    6 1
     6    2    3 2
     7    3    4 1
     8    3   31 1
     9    4    5 1
    10    5   12 1
    11    5    6 2
    12    6    7 1
    13    7    8 2
    14    7    9 am
    15    9   10 1
    16    9   11 1
    17   11   12 2
    18   11   13 1
    19   13   14 1
    20   13   15 1
    21   13   16 1
    22   15   35 1
    23   15   36 1
    24   15   37 1
    25   16   17 1
    26   17   21 1
    27   17   18 2
    28   18   19 1
    29   19   20 2
    30   20   21 1
    31   20   23 1
    32   21   22 1
    33   22   38 1
    34   22   39 1
    35   23   28 ar
    36   23   24 ar
    37   24   25 ar
    38   24   40 1
    39   25   26 ar
    40   25   41 1
    41   26   27 ar
    42   26   42 1
    43   27   28 ar
    44   27   43 1
    45   28   29 1
    46   29   30 1
    47   30   44 1
    48   30   45 1
    49   30   46 1
    50   31   47 1
    51   31   48 1
    52   31   49 1
@<TRIPOS>MOLECULE
ZINC13552419
   49    52     0     0     0
SMALL
USER_CHARGES

@<TRIPOS>ATOM
      1 C1          0.0454    1.3818   -0.0978 C.ar      1 <0>        -0.0958
      2 C2          1.2371    2.0800   -0.1210 C.ar      1 <0>        -0.1429
      3 C3          2.4422    1.3928   -0.1320 C.ar      1 <0>         0.1049
      4 C4          2.4471    0.0056   -0.1198 C.ar      1 <0>        -0.1432
      5 C5          1.2527   -0.6880   -0.0967 C.ar      1 <0>        -0.0960
      6 C6          0.0529   -0.0008   -0.0858 C.ar      1 <0>        -0.0937
      7 C7         -1.2486   -0.7600   -0.0601 C.3       1 <0>        -0.0899
      8 C8         -1.7101   -1.0296   -1.4937 C.3       1 <0>         0.1233
      9 N1         -2.9754   -1.7676   -1.4687 N.am      1 <0>        -0.7309
     10 C9         -3.5745   -2.1174   -2.6243 C.2       1 <0>         0.5229
     11 O1         -3.0661   -1.8211   -3.6848 O.2       1 <0>        -0.5307
     12 C10        -4.8760   -2.8765   -2.5986 C.3       1 <0>        -0.1221
     13 H1         -5.6311   -2.2866   -2.0789 H         1 <0>         0.1033
     14 C11        -4.6768   -4.2074   -1.8698 C.3       1 <0>        -0.1132
     15 C12        -6.0057   -4.9645   -1.8144 C.3       1 <0>        -0.1316
     16 C13        -6.4799   -5.2606   -3.2406 C.3       1 <0>         0.0949
     17 N2         -6.5349   -3.9993   -3.9921 N.pl3     1 <0>        -0.5702
     18 C14        -5.3379   -3.1482   -4.0337 C.3       1 <0>         0.1339
     19 C15        -7.6924   -3.6196   -4.6485 C.ar      1 <0>         0.5232
     20 C16        -8.7974   -4.4856   -4.7164 C.ar      1 <0>        -0.1040
     21 C17        -9.9450   -4.0452   -5.3964 C.ar      1 <0>         0.3160
     22 N3        -10.8529   -5.0701   -5.3096 N.pl3     1 <0>        -0.5744
     23 H2        -11.7487   -5.0764   -5.6815 H         1 <0>         0.4345
     24 C18       -10.2648   -6.0785   -4.6051 C.2       1 <0>         0.2599
     25 N4         -9.0590   -5.7335   -4.2581 N.2       1 <0>        -0.4608
     26 N5         -9.9455   -2.8354   -5.9474 N.ar      1 <0>        -0.5502
     27 C19        -8.8862   -2.0572   -5.8591 C.ar      1 <0>         0.4358
     28 N6         -7.7868   -2.4259   -5.2244 N.ar      1 <0>        -0.5768
     29 Cl1        -8.9389   -0.4866   -6.5968 Cl        1 <0>         0.0357
     30 O2          3.6160    2.0774   -0.1552 O.3       1 <0>        -0.4998
     31 H3         -0.8930    1.9163   -0.0847 H         1 <0>         0.1278
     32 H4          1.2307    3.1600   -0.1308 H         1 <0>         0.1300
     33 H5          3.3840   -0.5317   -0.1288 H         1 <0>         0.1299
     34 H6          1.2559   -1.7680   -0.0872 H         1 <0>         0.1276
     35 H7         -1.1065   -1.7072    0.4601 H         1 <0>         0.0808
     36 H8         -2.0033   -0.1697    0.4596 H         1 <0>         0.0809
     37 H9         -1.8522   -0.0823   -2.0139 H         1 <0>         0.0714
     38 H10        -0.9554   -1.6199   -2.0134 H         1 <0>         0.0712
     39 H11        -3.3821   -2.0045   -0.6205 H         1 <0>         0.4009
     40 H12        -3.9393   -4.8069   -2.4035 H         1 <0>         0.0736
     41 H13        -4.3248   -4.0171   -0.8559 H         1 <0>         0.0723
     42 H14        -5.8682   -5.9016   -1.2748 H         1 <0>         0.0858
     43 H15        -6.7505   -4.3552   -1.3024 H         1 <0>         0.0693
     44 H16        -5.7811   -5.9436   -3.7237 H         1 <0>         0.0723
     45 H17        -7.4719   -5.7111   -3.2097 H         1 <0>         0.1313
     46 H18        -5.5763   -2.2052   -4.5256 H         1 <0>         0.1095
     47 H19        -4.5461   -3.6587   -4.5820 H         1 <0>         0.0813
     48 H20       -10.7311   -7.0236   -4.3693 H         1 <0>         0.2303
     49 H21         3.9684    2.2837    0.7213 H         1 <0>         0.3918
@<TRIPOS>BOND
     1    1    6 ar
     2    1    2 ar
     3    1   31 1
     4    2    3 ar
     5    2   32 1
     6    3    4 ar
     7    3   30 1
     8    4    5 ar
     9    4   33 1
    10    5    6 ar
    11    5   34 1
    12    6    7 1
    13    7    8 1
    14    7   35 1
    15    7   36 1
    16    8    9 1
    17    8   37 1
    18    8   38 1
    19    9   10 am
    20    9   39 1
    21   10   11 2
    22   10   12 1
    23   12   13 1
    24   12   18 1
    25   12   14 1
    26   14   15 1
    27   14   40 1
    28   14   41 1
    29   15   16 1
    30   15   42 1
    31   15   43 1
    32   16   17 1
    33   16   44 1
    34   16   45 1
    35   17   18 1
    36   17   19 1
    37   18   46 1
    38   18   47 1
    39   19   28 ar
    40   19   20 ar
    41   20   25 1
    42   20   21 ar
    43   21   22 1
    44   21   26 ar
    45   22   23 1
    46   22   24 1
    47   24   25 2
    48   24   48 1
    49   26   27 ar
    50   27   28 ar
    51   27   29 1
    52   30   49 1
@<TRIPOS>MOLECULE
ZINC04889291
   48    51     0     0     0
SMALL
USER_CHARGES

@<TRIPOS>ATOM
      1 C1          0.1985    0.4612    0.3185 C.3       1 <0>         0.0250
      2 O1         -0.4572    0.1337   -0.9082 O.3       1 <0>        -0.3151
      3 C2          0.2640   -0.5608   -1.8270 C.ar      1 <0>         0.1429
      4 C3          1.5747   -0.9236   -1.5484 C.ar      1 <0>        -0.2077
      5 C4          2.3091   -1.6285   -2.4790 C.ar      1 <0>        -0.0497
      6 C5          1.7341   -1.9768   -3.6997 C.ar      1 <0>        -0.0609
      7 C6          0.4180   -1.6116   -3.9763 C.ar      1 <0>        -0.0445
      8 C7         -0.3132   -0.9110   -3.0400 C.ar      1 <0>        -0.1515
      9 C8          2.5219   -2.7349   -4.7033 C.2       1 <0>         0.1700
     10 C9          3.3719   -3.8128   -4.4382 C.2       1 <0>        -0.2538
     11 C10         3.9069   -4.2301   -5.6225 C.2       1 <0>         0.2781
     12 N1          3.4088   -3.4424   -6.5981 N.pl3     1 <0>        -0.4446
     13 H1          3.6128   -3.5083   -7.5441 H         1 <0>         0.4492
     14 N2          2.5395   -2.5142   -6.0041 N.2       1 <0>        -0.2485
     15 O2          4.7807   -5.2642   -5.7073 O.3       1 <0>        -0.2291
     16 C11         5.3330   -5.7108   -4.5610 C.2       1 <0>         0.4431
     17 C12         4.8836   -5.3789   -3.3304 C.2       1 <0>        -0.2605
     18 C13         3.7010   -4.4661   -3.1209 C.3       1 <0>         0.1167
     19 H2          3.9515   -3.7028   -2.3842 H         1 <0>         0.1003
     20 C14         2.5186   -5.2680   -2.6415 C.ar      1 <0>        -0.0322
     21 C15         1.9803   -6.2525   -3.4512 C.ar      1 <0>        -0.1119
     22 C16         0.8980   -6.9903   -3.0186 C.ar      1 <0>        -0.0518
     23 C17         0.3456   -6.7416   -1.7606 C.ar      1 <0>        -0.1286
     24 C18         0.8938   -5.7466   -0.9487 C.ar      1 <0>        -0.0564
     25 C19         1.9797   -5.0202   -1.3914 C.ar      1 <0>        -0.1203
     26 C20        -0.8138   -7.5274   -1.2908 C.2       1 <0>         0.5074
     27 O3         -1.2888   -8.3921   -1.9995 O.2       1 <0>        -0.5048
     28 O4         -1.3444   -7.2850   -0.0766 O.3       1 <0>        -0.3497
     29 C21        -2.4642   -8.0825    0.3131 C.3       1 <0>         0.0343
     30 C22         5.5543   -5.9133   -2.1836 C.1       1 <0>         0.2686
     31 N3          6.0864   -6.3372   -1.2739 N.1       1 <0>        -0.4334
     32 N4          6.4144   -6.5518   -4.6492 N.pl3     1 <0>        -0.8291
     33 H3          0.5080   -0.4553    0.8210 H         1 <0>         0.0582
     34 H4          1.0749    1.0747    0.1095 H         1 <0>         0.0575
     35 H5         -0.4872    1.0139    0.9607 H         1 <0>         0.1015
     36 H6          2.0198   -0.6534   -0.6023 H         1 <0>         0.1339
     37 H7          3.3290   -1.9099   -2.2621 H         1 <0>         0.1304
     38 H8         -0.0301   -1.8800   -4.9216 H         1 <0>         0.1341
     39 H9         -1.3344   -0.6309   -3.2523 H         1 <0>         0.1354
     40 H10         2.4084   -6.4436   -4.4241 H         1 <0>         0.1236
     41 H11         0.4786   -7.7582   -3.6517 H         1 <0>         0.1361
     42 H12         0.4711   -5.5490    0.0253 H         1 <0>         0.1382
     43 H13         2.4074   -4.2533   -0.7627 H         1 <0>         0.1312
     44 H14        -3.2785   -7.9369   -0.3967 H         1 <0>         0.0619
     45 H15        -2.1755   -9.1335    0.3241 H         1 <0>         0.0615
     46 H16        -2.7929   -7.7855    1.3090 H         1 <0>         0.1042
     47 H17         6.7597   -6.8083   -5.5187 H         1 <0>         0.4125
     48 H18         6.8333   -6.8896   -3.8422 H         1 <0>         0.4287
@<TRIPOS>BOND
     1    1    2 1
     2    1   33 1
     3    1   34 1
     4    1   35 1
     5    2    3 1
     6    3    8 ar
     7    3    4 ar
     8    4    5 ar
     9    4   36 1
    10    5    6 ar
    11    5   37 1
    12    6    7 ar
    13    6    9 1
    14    7    8 ar
    15    7   38 1
    16    8   39 1
    17    9   14 2
    18    9   10 1
    19   10   18 1
    20   10   11 2
    21   11   12 1
    22   11   15 1
    23   12   13 1
    24   12   14 1
    25   15   16 1
    26   16   17 2
    27   16   32 1
    28   17   18 1
    29   17   30 1
    30   18   19 1
    31   18   20 1
    32   20   25 ar
    33   20   21 ar
    34   21   22 ar
    35   21   40 1
    36   22   23 ar
    37   22   41 1
    38   23   24 ar
    39   23   26 1
    40   24   25 ar
    41   24   42 1
    42   25   43 1
    43   26   27 2
    44   26   28 1
    45   28   29 1
    46   29   44 1
    47   29   45 1
    48   29   46 1
    49   30   31 3
    50   32   47 1
    51   32   48 1
@<TRIPOS>MOLECULE
ZINC08836680
   54    56     0     0     0
SMALL
USER_CHARGES
2-[4-(4-bromophenyl)sulfonylpiperazin-1-yl]-N-[1-(4-hydroxyphenyl)ethylideneamino]acetamide
@<TRIPOS>ATOM
      1 C1         -6.9735    3.0480   -4.8801 C.3       1 <0>        -0.1061
      2 C2         -5.4722    3.1006   -5.0002 C.2       1 <0>         0.1830
      3 N1         -4.7314    2.4196   -4.1805 N.2       1 <0>        -0.2416
      4 N2         -3.3397    2.5801   -4.1958 N.am      1 <0>        -0.5699
      5 C3         -2.5610    1.7829   -3.4378 C.2       1 <0>         0.5178
      6 O1         -3.0652    0.9264   -2.7422 O.2       1 <0>        -0.4908
      7 C4         -1.0640    1.9556   -3.4542 C.3       1 <0>        -0.0241
      8 C5         -0.6766   -0.3179   -2.7169 C.3       1 <0>        -0.0302
      9 C6          0.1162   -1.1702   -1.7202 C.3       1 <0>         0.0952
     10 N3         -0.2464   -0.7587   -0.3555 N.pl3     1 <0>        -1.0105
     11 C7         -0.1922    0.6739   -0.0239 C.3       1 <0>         0.0960
     12 C8         -0.9728    1.4536   -1.0873 C.3       1 <0>        -0.0299
     13 S1         -0.7089   -1.8771    0.7749 S.o2      1 <0>         2.6918
     14 O2         -1.4968   -1.1841    1.7331 O.2       1 <0>        -0.9337
     15 O3         -1.1973   -3.0020    0.0571 O.2       1 <0>        -0.9336
     16 C9          0.7491   -2.4070    1.6103 C.ar      1 <0>        -0.6745
     17 C10         1.4617   -3.4923    1.1355 C.ar      1 <0>        -0.0141
     18 C11         2.6082   -3.9055    1.7877 C.ar      1 <0>        -0.1092
     19 C12         3.0366   -3.2393    2.9217 C.ar      1 <0>        -0.0338
     20 C13         2.3204   -2.1566    3.3995 C.ar      1 <0>        -0.1092
     21 C14         1.1769   -1.7410    2.7436 C.ar      1 <0>        -0.0140
     22 Br1         4.6014   -3.8081    3.8183 Br        1 <0>        -0.0182
     23 C15        -4.8450    3.9256   -6.0488 C.ar      1 <0>        -0.1291
     24 C16        -5.4313    5.1341   -6.4338 C.ar      1 <0>        -0.0590
     25 C17        -4.8390    5.9043   -7.4110 C.ar      1 <0>        -0.1380
     26 C18        -3.6667    5.4758   -8.0205 C.ar      1 <0>         0.1359
     27 C19        -3.0832    4.2727   -7.6446 C.ar      1 <0>        -0.1424
     28 C20        -3.6656    3.4985   -6.6646 C.ar      1 <0>        -0.1079
     29 O4         -3.0893    6.2356   -8.9873 O.3       1 <0>        -0.4968
     30 H1         -7.3119    3.8359   -4.2072 H         1 <0>         0.0972
     31 H2         -7.4219    3.1922   -5.8630 H         1 <0>         0.0917
     32 H3         -7.2724    2.0779   -4.4831 H         1 <0>         0.0919
     33 H4         -2.9365    3.2649   -4.7520 H         1 <0>         0.3962
     34 H5         -0.8164    2.9985   -3.2564 H         1 <0>         0.1621
     35 H6         -0.6760    1.6690   -4.4317 H         1 <0>         0.1651
     36 H7         -0.3371   -0.5331   -3.7301 H         1 <0>         0.1415
     37 H8         -1.7378   -0.5514   -2.6316 H         1 <0>         0.1612
     38 H9         -0.1288   -2.2228   -1.8625 H         1 <0>         0.1394
     39 H10         1.1841   -1.0184   -1.8769 H         1 <0>         0.0998
     40 H11         0.8461    1.0056   -0.0151 H         1 <0>         0.1001
     41 H12        -0.6389    0.8433    0.9559 H         1 <0>         0.1398
     42 H13        -0.8481    2.5232   -0.9187 H         1 <0>         0.1418
     43 H14        -2.0301    1.1962   -1.0246 H         1 <0>         0.1576
     44 H15         1.1248   -4.0149    0.2524 H         1 <0>         0.1504
     45 H16         3.1673   -4.7506    1.4142 H         1 <0>         0.1486
     46 H17         2.6547   -1.6360    4.2847 H         1 <0>         0.1486
     47 H18         0.6178   -0.8955    3.1163 H         1 <0>         0.1503
     48 H19        -6.3452    5.4659   -5.9637 H         1 <0>         0.1424
     49 H20        -5.2892    6.8405   -7.7064 H         1 <0>         0.1428
     50 H21        -2.1715    3.9436   -8.1209 H         1 <0>         0.1384
     51 H22        -3.2110    2.5633   -6.3728 H         1 <0>         0.1270
     52 H23        -3.3961    6.0337   -9.8818 H         1 <0>         0.4030
     53 N4         -0.4316    1.1103   -2.4204 N.4       1 <0>        -0.3746
     54 H24         0.5807    1.2818   -2.4228 H         1 <0>         0.4348
@<TRIPOS>BOND
     1    1    2 1
     2    1   30 1
     3    1   31 1
     4    1   32 1
     5    2    3 2
     6    2   23 1
     7    3    4 1
     8    4    5 am
     9    4   33 1
    10    5    6 2
    11    5    7 1
    12    7   34 1
    13    7   35 1
    14    7   53 1
    15    8    9 1
    16    8   36 1
    17    8   37 1
    18    8   53 1
    19    9   10 1
    20    9   38 1
    21    9   39 1
    22   10   11 1
    23   10   13 1
    24   11   12 1
    25   11   40 1
    26   11   41 1
    27   12   42 1
    28   12   43 1
    29   12   53 1
    30   13   14 2
    31   13   15 2
    32   13   16 1
    33   16   21 ar
    34   16   17 ar
    35   17   18 ar
    36   17   44 1
    37   18   19 ar
    38   18   45 1
    39   19   20 ar
    40   19   22 1
    41   20   21 ar
    42   20   46 1
    43   21   47 1
    44   23   28 ar
    45   23   24 ar
    46   24   25 ar
    47   24   48 1
    48   25   26 ar
    49   25   49 1
    50   26   27 ar
    51   26   29 1
    52   27   28 ar
    53   27   50 1
    54   28   51 1
    55   29   52 1
    56   53   54 1
@<TRIPOS>MOLECULE
ZINC23757550
   50    51     0     0     0
SMALL
USER_CHARGES
(2R)-2-[4-[4-chloro-3-(trifluoromethyl)phenyl]sulfonylpiperazin-1-yl]-N-(methylcarbamoyl)propanamide
@<TRIPOS>ATOM
      1 C1         -4.7229    2.4506   -3.8948 C.3       1 <0>        -0.1832
      2 C2         -4.2495    3.6692   -3.1000 C.3       1 <0>         0.0144
      3 H1         -4.9981    3.9656   -2.3505 H         1 <0>         0.1591
      4 C3         -3.9929    4.8157   -4.0438 C.2       1 <0>         0.5155
      5 O1         -2.8815    4.9927   -4.4946 O.2       1 <0>        -0.4524
      6 N1         -4.9990    5.6443   -4.3869 N.am      1 <0>        -0.6906
      7 C4         -4.7695    6.6697   -5.2309 C.2       1 <0>         0.6916
      8 O2         -3.6553    6.8471   -5.6828 O.2       1 <0>        -0.5230
      9 N2         -5.7756    7.4983   -5.5740 N.am      1 <0>        -0.7418
     10 C5         -5.5261    8.6128   -6.4915 C.3       1 <0>         0.0983
     11 N3         -3.0100    3.3364   -2.3854 N.4       1 <0>        -0.3921
     12 C6         -2.5616    4.4631   -1.5563 C.3       1 <0>        -0.0258
     13 C7         -1.1803    4.1461   -0.9733 C.3       1 <0>         0.0965
     14 N4         -1.2526    2.8522   -0.2778 N.pl3     1 <0>        -1.0100
     15 C8         -1.8144    1.7026   -1.0031 C.3       1 <0>         0.0929
     16 C9         -3.1761    2.1173   -1.5829 C.3       1 <0>        -0.0261
     17 S1         -0.7095    2.6923    1.2785 S.o2      1 <0>         2.6908
     18 O3         -0.3905    1.3193    1.4582 O.2       1 <0>        -0.9241
     19 O4          0.2405    3.7285    1.4856 O.2       1 <0>        -0.9236
     20 C10        -2.0705    3.0367    2.3432 C.ar      1 <0>        -0.6925
     21 C11        -2.2975    4.3292    2.7784 C.ar      1 <0>         0.0212
     22 C12        -3.3681    4.6009    3.6090 C.ar      1 <0>        -0.1261
     23 C13        -4.2064    3.5772    4.0141 C.ar      1 <0>         0.0602
     24 C14        -3.9754    2.2833    3.5828 C.ar      1 <0>        -0.1956
     25 C15        -2.9075    2.0137    2.7475 C.ar      1 <0>         0.0358
     26 C16        -4.8881    1.1679    4.0231 C.3       1 <0>         0.5095
     27 F1         -4.4552   -0.0381    3.4616 F         1 <0>        -0.1694
     28 F2         -4.8631    1.0681    5.4183 F         1 <0>        -0.1610
     29 F3         -6.1933    1.4381    3.5982 F         1 <0>        -0.1664
     30 Cl1        -5.5476    3.9166    5.0626 Cl        1 <0>        -0.0092
     31 H2         -4.9102    1.6137   -3.2059 H         1 <0>         0.1039
     32 H3         -3.9477    2.1621   -4.6200 H         1 <0>         0.0958
     33 H4         -5.6511    2.6999   -4.4299 H         1 <0>         0.1146
     34 H5         -6.0075    5.4837   -3.9781 H         1 <0>         0.4432
     35 H6         -6.7841    7.3377   -5.1651 H         1 <0>         0.4256
     36 H7         -6.4596    9.1724   -6.6510 H         1 <0>         0.0885
     37 H8         -5.1642    8.2216   -7.4538 H         1 <0>         0.0658
     38 H9         -4.7672    9.2812   -6.0587 H         1 <0>         0.0654
     39 H10        -2.5006    5.3713   -2.1739 H         1 <0>         0.1453
     40 H11        -3.2784    4.6239   -0.7375 H         1 <0>         0.1341
     41 H12        -0.4420    4.0940   -1.7871 H         1 <0>         0.1137
     42 H13        -0.8907    4.9369   -0.2656 H         1 <0>         0.1399
     43 H14        -1.1313    1.4118   -1.8148 H         1 <0>         0.1134
     44 H15        -1.9408    0.8579   -0.3099 H         1 <0>         0.1414
     45 H16        -3.8823    2.3119   -0.7623 H         1 <0>         0.1361
     46 H17        -3.5671    1.3098   -2.2193 H         1 <0>         0.1553
     47 H18        -1.6407    5.1274    2.4658 H         1 <0>         0.1624
     48 H19        -3.5478    5.6112    3.9456 H         1 <0>         0.1630
     49 H20        -2.7268    1.0035    2.4110 H         1 <0>         0.1660
     50 H21        -2.2284    3.1401   -3.1341 H         1 <0>         0.4536
@<TRIPOS>BOND
     1    1    2 1
     2    1   31 1
     3    1   32 1
     4    1   33 1
     5    2    3 1
     6    2    4 1
     7    2   11 1
     8    4    5 2
     9    4    6 am
    10    6    7 am
    11    6   34 1
    12    7    8 2
    13    7    9 am
    14    9   10 1
    15    9   35 1
    16   10   36 1
    17   10   37 1
    18   10   38 1
    19   11   16 1
    20   11   12 1
    21   11   50 1
    22   12   13 1
    23   12   39 1
    24   12   40 1
    25   13   14 1
    26   13   41 1
    27   13   42 1
    28   14   15 1
    29   14   17 1
    30   15   16 1
    31   15   43 1
    32   15   44 1
    33   16   45 1
    34   16   46 1
    35   17   18 2
    36   17   19 2
    37   17   20 1
    38   20   25 ar
    39   20   21 ar
    40   21   22 ar
    41   21   47 1
    42   22   23 ar
    43   22   48 1
    44   23   24 ar
    45   23   30 1
    46   24   25 ar
    47   24   26 1
    48   25   49 1
    49   26   27 1
    50   26   28 1
    51   26   29 1
@<TRIPOS>MOLECULE
ZINC39632595
   68    72     0     0     0
SMALL
USER_CHARGES

@<TRIPOS>ATOM
      1 C1          1.6693   -0.8823   -0.8458 C.ar      1 <0>        -0.0079
      2 C2          2.9071   -0.3052   -0.9397 C.ar      1 <0>        -0.2475
      3 C3          3.0797    1.0138   -0.5245 C.ar      1 <0>         0.4356
      4 N1          2.0629    1.7149   -0.0411 N.ar      1 <0>        -0.5449
      5 C4          0.8569    1.1981    0.0660 C.ar      1 <0>         0.2257
      6 C5          0.6116   -0.1176   -0.3307 C.ar      1 <0>        -0.2603
      7 C6         -0.7405   -0.6957   -0.2107 C.2       1 <0>         0.6087
      8 O1         -1.7075    0.0348   -0.1116 O.2       1 <0>        -0.5347
      9 N2         -0.9039   -2.0335   -0.2107 N.am      1 <0>        -0.6162
     10 C7          0.1478   -3.0770   -0.1746 C.3       1 <0>         0.1058
     11 C8         -0.4184   -4.1697    0.7596 C.3       1 <0>        -0.1164
     12 H1         -0.1464   -5.1599    0.3940 H         1 <0>         0.1154
     13 C9         -1.9436   -3.9797    0.7065 C.3       1 <0>        -0.0718
     14 C10        -2.1764   -2.7936   -0.2404 C.3       1 <0>         0.1083
     15 C11        -2.4840   -3.6523    2.0952 C.3       1 <0>        -0.1457
     16 C12        -4.0085   -3.5242    2.0273 C.3       1 <0>        -0.0094
     17 N3         -4.5857   -4.7828    1.5398 N.4       1 <0>        -0.5045
     18 C13        -4.1333   -5.0432    0.1679 C.3       1 <0>        -0.0099
     19 C14        -2.6141   -5.2351    0.1570 C.3       1 <0>        -0.1336
     20 C15         0.0886   -3.9728    2.1651 C.2       1 <0>         0.5138
     21 O2          0.2769   -2.8528    2.5904 O.2       1 <0>        -0.5142
     22 N4          0.3327   -5.0414    2.9493 N.am      1 <0>        -0.7231
     23 C16         0.8256   -4.8500    4.3155 C.3       1 <0>         0.1385
     24 C17         2.3663   -4.7715    4.3154 C.3       1 <0>        -0.1349
     25 C18         2.7841   -5.5060    5.6135 C.3       1 <0>        -0.1272
     26 C19         1.7711   -6.6755    5.6857 C.3       1 <0>        -0.1264
     27 C20         0.4472   -6.0606    5.1868 C.3       1 <0>        -0.1296
     28 N5          4.3304    1.6006   -0.6176 N.pl3     1 <0>        -0.5997
     29 C21         4.5112    3.0410   -0.3767 C.3       1 <0>         0.0834
     30 C22         5.6533    3.2232    0.6295 C.3       1 <0>         0.0458
     31 O3          6.8027    2.5069    0.1718 O.3       1 <0>        -0.3761
     32 C23         6.6112    1.0935    0.0748 C.3       1 <0>         0.0465
     33 C24         5.5191    0.8011   -0.9543 C.3       1 <0>         0.0829
     34 H2          1.5095   -1.9015   -1.1651 H         1 <0>         0.1412
     35 H3          3.7421   -0.8670   -1.3314 H         1 <0>         0.1391
     36 H4          0.0510    1.7967    0.4644 H         1 <0>         0.1677
     37 H5          0.3170   -3.4807   -1.1728 H         1 <0>         0.0906
     38 H6          1.0730   -2.6701    0.2335 H         1 <0>         0.1039
     39 H7         -2.9977   -2.1748    0.1211 H         1 <0>         0.0895
     40 H8         -2.3832   -3.1502   -1.2495 H         1 <0>         0.0841
     41 H9         -2.2163   -4.4505    2.7874 H         1 <0>         0.0929
     42 H10        -2.0548   -2.7116    2.4401 H         1 <0>         0.1261
     43 H11        -4.3992   -3.3065    3.0213 H         1 <0>         0.1380
     44 H12        -4.2750   -2.7151    1.3473 H         1 <0>         0.1351
     45 H13        -4.2924   -5.5400    2.1387 H         1 <0>         0.4270
     46 H14        -4.6159   -5.9451   -0.2086 H         1 <0>         0.1397
     47 H15        -4.3970   -4.1981   -0.4679 H         1 <0>         0.1332
     48 H16        -2.2768   -5.4104   -0.8645 H         1 <0>         0.1215
     49 H17        -2.3509   -6.0903    0.7795 H         1 <0>         0.0968
     50 H18         0.1821   -5.9372    2.6091 H         1 <0>         0.3985
     51 H19         0.4046   -3.9385    4.7398 H         1 <0>         0.0928
     52 H20         2.7740   -5.2796    3.4415 H         1 <0>         0.0702
     53 H21         2.6953   -3.7327    4.3420 H         1 <0>         0.0717
     54 H22         3.8038   -5.8826    5.5330 H         1 <0>         0.0731
     55 H23         2.6802   -4.8509    6.4785 H         1 <0>         0.0717
     56 H24         2.0828   -7.4910    5.0331 H         1 <0>         0.0686
     57 H25         1.6659   -7.0261    6.7124 H         1 <0>         0.0722
     58 H26        -0.1567   -5.7364    6.0344 H         1 <0>         0.0757
     59 H27        -0.1031   -6.7905    4.5931 H         1 <0>         0.0680
     60 H28         4.7628    3.5409   -1.3120 H         1 <0>         0.0769
     61 H29         3.5925    3.4632    0.0303 H         1 <0>         0.1097
     62 H30         5.8955    4.2823    0.7174 H         1 <0>         0.1106
     63 H31         5.3470    2.8372    1.6017 H         1 <0>         0.0569
     64 H32         7.5425    0.6204   -0.2365 H         1 <0>         0.1114
     65 H33         6.3084    0.6997    1.0450 H         1 <0>         0.0562
     66 H34         5.2674   -0.2591   -0.9297 H         1 <0>         0.0953
     67 H35         5.8738    1.0717   -1.9488 H         1 <0>         0.0832
     68 H36        -5.5925   -4.7172    1.5538 H         1 <0>         0.4340
@<TRIPOS>BOND
     1    1    6 ar
     2    1    2 ar
     3    1   34 1
     4    2    3 ar
     5    2   35 1
     6    3    4 ar
     7    3   28 1
     8    4    5 ar
     9    5    6 ar
    10    5   36 1
    11    6    7 1
    12    7    8 2
    13    7    9 am
    14    9   14 1
    15    9   10 1
    16   10   11 1
    17   10   37 1
    18   10   38 1
    19   11   12 1
    20   11   13 1
    21   11   20 1
    22   13   19 1
    23   13   14 1
    24   13   15 1
    25   14   39 1
    26   14   40 1
    27   15   16 1
    28   15   41 1
    29   15   42 1
    30   16   17 1
    31   16   43 1
    32   16   44 1
    33   17   18 1
    34   17   45 1
    35   17   68 1
    36   18   19 1
    37   18   46 1
    38   18   47 1
    39   19   48 1
    40   19   49 1
    41   20   21 2
    42   20   22 am
    43   22   23 1
    44   22   50 1
    45   23   27 1
    46   23   24 1
    47   23   51 1
    48   24   25 1
    49   24   52 1
    50   24   53 1
    51   25   26 1
    52   25   54 1
    53   25   55 1
    54   26   27 1
    55   26   56 1
    56   26   57 1
    57   27   58 1
    58   27   59 1
    59   28   33 1
    60   28   29 1
    61   29   30 1
    62   29   60 1
    63   29   61 1
    64   30   31 1
    65   30   62 1
    66   30   63 1
    67   31   32 1
    68   32   33 1
    69   32   64 1
    70   32   65 1
    71   33   66 1
    72   33   67 1
@<TRIPOS>MOLECULE
ZINC39942513
   51    55     0     0     0
SMALL
USER_CHARGES

@<TRIPOS>ATOM
      1 C1         -0.0187    1.5258    0.0104 C.3       1 <0>        -0.1605
      2 C2          0.0021   -0.0041    0.0020 C.3       1 <0>        -0.0969
      3 H1         -1.0205   -0.3814    0.0098 H         1 <0>         0.1055
      4 C3          0.7309   -0.5033    1.2229 C.2       1 <0>         0.5326
      5 O1          1.9109   -0.7754    1.1557 O.2       1 <0>        -0.5070
      6 N1          0.0715   -0.6474    2.3895 N.am      1 <0>        -0.7182
      7 C4          0.7801   -1.1327    3.5763 C.3       1 <0>         0.1667
      8 C5         -0.1764   -1.2027    4.7388 C.ar      1 <0>        -0.1080
      9 C6         -0.3416   -0.1053    5.5632 C.ar      1 <0>        -0.0865
     10 C7         -1.2182   -0.1645    6.6305 C.ar      1 <0>        -0.1016
     11 C8         -1.9334   -1.3253    6.8767 C.ar      1 <0>         0.0461
     12 C9         -1.7670   -2.4308    6.0462 C.ar      1 <0>         0.0312
     13 C10        -0.8910   -2.3623    4.9750 C.ar      1 <0>        -0.0820
     14 O2         -2.5731   -3.4375    6.4933 O.3       1 <0>        -0.3074
     15 C11        -2.9268   -3.0768    7.8416 C.3       1 <0>         0.2122
     16 O3         -2.8439   -1.6393    7.8440 O.3       1 <0>        -0.3060
     17 S1          0.8511   -0.5891   -1.4904 S.3       1 <0>        -0.1173
     18 C12        -0.2200   -0.0410   -2.8480 C.3       1 <0>         0.2970
     19 H2          0.1928   -0.3536   -3.8072 H         1 <0>         0.1621
     20 N2         -0.3873    1.4218   -2.8125 N.pl3     1 <0>        -0.5913
     21 N3         -1.7609    1.6386   -2.6303 N.2       1 <0>        -0.1517
     22 C13        -2.3907    0.4960   -2.5583 C.2       1 <0>         0.1973
     23 O4         -1.5464   -0.5607   -2.6804 O.3       1 <0>        -0.3001
     24 C14        -3.7756    0.3748   -2.3778 C.2       1 <0>         0.1299
     25 C15        -4.7040    1.4093   -2.2527 C.ar      1 <0>        -0.1312
     26 C16        -4.5729    2.8141   -2.2639 C.ar      1 <0>        -0.0206
     27 C17        -5.6744    3.5947   -2.1173 C.ar      1 <0>        -0.1406
     28 C18        -6.9462    3.0415   -1.9540 C.ar      1 <0>         0.0463
     29 C19        -7.1456    1.7005   -1.9336 C.ar      1 <0>        -0.2021
     30 C20        -6.0422    0.8209   -2.0809 C.ar      1 <0>         0.3164
     31 N4         -5.9724   -0.4959   -2.0955 N.pl3     1 <0>        -0.5904
     32 C21        -4.5772   -0.9048   -2.2846 C.3       1 <0>         0.0850
     33 H3          1.0039    1.9031    0.0027 H         1 <0>         0.0833
     34 H4         -0.5459    1.8868   -0.8726 H         1 <0>         0.0783
     35 H5         -0.5289    1.8773    0.9072 H         1 <0>         0.0746
     36 H6         -0.8722   -0.4298    2.4432 H         1 <0>         0.4017
     37 H7          1.1839   -2.1254    3.3778 H         1 <0>         0.0856
     38 H8          1.5952   -0.4503    3.8172 H         1 <0>         0.0877
     39 H9          0.2156    0.8001    5.3732 H         1 <0>         0.1417
     40 H10        -1.3453    0.6943    7.2729 H         1 <0>         0.1414
     41 H11        -0.7633   -3.2165    4.3267 H         1 <0>         0.1379
     42 H12        -3.9414   -3.4023    8.0716 H         1 <0>         0.1368
     43 H13        -2.2169   -3.5026    8.5508 H         1 <0>         0.0905
     44 H14         0.3068    2.0941   -2.8970 H         1 <0>         0.4724
     45 H15        -3.6003    3.2669   -2.3883 H         1 <0>         0.1614
     46 H16        -5.5642    4.6690   -2.1268 H         1 <0>         0.1575
     47 H17        -7.7945    3.7001   -1.8404 H         1 <0>         0.1623
     48 H18        -8.1417    1.3031   -1.8060 H         1 <0>         0.1625
     49 H19        -4.4741   -1.4801   -3.2046 H         1 <0>         0.1807
     50 H20        -4.2427   -1.4959   -1.4322 H         1 <0>         0.1781
     51 H21        -6.7260   -1.0990   -1.9996 H         1 <0>         0.4568
@<TRIPOS>BOND
     1    1    2 1
     2    1   33 1
     3    1   34 1
     4    1   35 1
     5    2    3 1
     6    2    4 1
     7    2   17 1
     8    4    5 2
     9    4    6 am
    10    6    7 1
    11    6   36 1
    12    7    8 1
    13    7   37 1
    14    7   38 1
    15    8   13 ar
    16    8    9 ar
    17    9   10 ar
    18    9   39 1
    19   10   11 ar
    20   10   40 1
    21   11   16 1
    22   11   12 ar
    23   12   13 ar
    24   12   14 1
    25   13   41 1
    26   14   15 1
    27   15   16 1
    28   15   42 1
    29   15   43 1
    30   17   18 1
    31   18   19 1
    32   18   23 1
    33   18   20 1
    34   20   21 1
    35   20   44 1
    36   21   22 2
    37   22   23 1
    38   22   24 1
    39   24   32 1
    40   24   25 2
    41   25   30 ar
    42   25   26 ar
    43   26   27 ar
    44   26   45 1
    45   27   28 ar
    46   27   46 1
    47   28   29 ar
    48   28   47 1
    49   29   30 ar
    50   29   48 1
    51   30   31 2
    52   31   32 1
    53   31   51 1
    54   32   49 1
    55   32   50 1
@<TRIPOS>MOLECULE
ZINC38639618
   43    45     0     0     0
SMALL
USER_CHARGES

@<TRIPOS>ATOM
      1 C1          4.0584   -4.5902    0.0028 C.ar      1 <0>        -0.1556
      2 C2          5.1827   -3.7547   -0.0043 C.ar      1 <0>         0.1037
      3 C3          5.0906   -2.4029   -0.0173 C.ar      1 <0>        -0.2317
      4 C4          3.8269   -1.7723   -0.0244 C.ar      1 <0>         0.3701
      5 N1          3.7441   -0.4503   -0.0372 N.am      1 <0>        -0.5844
      6 C5          2.5910    0.2083   -0.0445 C.2       1 <0>         0.5212
      7 O1          2.5848    1.4236   -0.0566 O.2       1 <0>        -0.4129
      8 C6          1.2858   -0.5548   -0.0381 C.3       1 <0>        -0.1466
      9 C7          1.3647   -2.0694   -0.0235 C.2       1 <0>         0.1152
     10 C8          2.6239   -2.6325   -0.0176 C.ar      1 <0>        -0.1239
     11 C9          2.8005   -4.0847   -0.0035 C.ar      1 <0>        -0.0021
     12 C10         0.1473   -2.9043   -0.0165 C.2       1 <0>         0.4918
     13 O2         -0.9449   -2.3843    0.0888 O.2       1 <0>        -0.4207
     14 O3          0.2481   -4.2439   -0.1269 O.3       1 <0>        -0.3155
     15 C11        -0.9708   -4.9896   -0.1128 C.3       1 <0>         0.0497
     16 C12        -0.6625   -6.4587   -0.2456 C.2       1 <0>         0.5206
     17 O4          0.4878   -6.8306   -0.3428 O.2       1 <0>        -0.5220
     18 N2         -1.6651   -7.3594   -0.2564 N.am      1 <0>        -0.5069
     19 N3         -1.3785   -8.7252   -0.3799 N.am      1 <0>        -0.5187
     20 C13        -2.3810   -9.6259   -0.3907 C.2       1 <0>         0.5690
     21 O5         -3.5340   -9.2531   -0.2933 O.2       1 <0>        -0.5215
     22 C14        -2.0787  -11.0666   -0.5209 C.ar      1 <0>        -0.1335
     23 C15        -0.7552  -11.4981   -0.6272 C.ar      1 <0>        -0.0718
     24 C16        -0.4793  -12.8437   -0.7486 C.ar      1 <0>        -0.1157
     25 C17        -1.5121  -13.7665   -0.7656 C.ar      1 <0>        -0.0033
     26 C18        -2.8272  -13.3444   -0.6609 C.ar      1 <0>        -0.1144
     27 C19        -3.1152  -12.0019   -0.5324 C.ar      1 <0>        -0.0369
     28 Cl1        -1.1570  -15.4588   -0.9192 Cl        1 <0>        -0.0480
     29 H1          4.1968   -5.6612    0.0090 H         1 <0>         0.1708
     30 H2          6.1635   -4.2066    0.0013 H         1 <0>         0.1726
     31 H3          5.9892   -1.8039   -0.0220 H         1 <0>         0.1771
     32 H4          0.7190   -0.2409    0.8383 H         1 <0>         0.1871
     33 H5          0.7203   -0.2578   -0.9213 H         1 <0>         0.1859
     34 H6          1.9439   -4.7424    0.0017 H         1 <0>         0.2015
     35 H7         -1.4947   -4.8117    0.8264 H         1 <0>         0.1254
     36 H8         -1.5997   -4.6736   -0.9451 H         1 <0>         0.1254
     37 H9         -2.5851   -7.0620   -0.1787 H         1 <0>         0.4398
     38 H10        -0.4585   -9.0226   -0.4576 H         1 <0>         0.4347
     39 H11         0.0509  -10.7795   -0.6148 H         1 <0>         0.1354
     40 H12         0.5441  -13.1787   -0.8309 H         1 <0>         0.1457
     41 H13        -3.6284  -14.0684   -0.6755 H         1 <0>         0.1481
     42 H14        -4.1406  -11.6743   -0.4460 H         1 <0>         0.1509
     43 H15         4.5674    0.0626   -0.0412 H         1 <0>         0.4444
@<TRIPOS>BOND
     1    1   11 ar
     2    1    2 ar
     3    1   29 1
     4    2    3 ar
     5    2   30 1
     6    3    4 ar
     7    3   31 1
     8    4   10 ar
     9    4    5 2
    10    5    6 am
    11    5   43 1
    12    6    7 2
    13    6    8 1
    14    8    9 1
    15    8   32 1
    16    8   33 1
    17    9   10 2
    18    9   12 1
    19   10   11 ar
    20   11   34 1
    21   12   13 2
    22   12   14 1
    23   14   15 1
    24   15   16 1
    25   15   35 1
    26   15   36 1
    27   16   17 2
    28   16   18 am
    29   18   19 1
    30   18   37 1
    31   19   20 am
    32   19   38 1
    33   20   21 2
    34   20   22 1
    35   22   27 ar
    36   22   23 ar
    37   23   24 ar
    38   23   39 1
    39   24   25 ar
    40   24   40 1
    41   25   26 ar
    42   25   28 1
    43   26   27 ar
    44   26   41 1
    45   27   42 1
@<TRIPOS>MOLECULE
ZINC02299230
   57    61     0     0     0
SMALL
USER_CHARGES
3-(dimethyl-morpholino-BLAHyl)aminopropan-1-ol
@<TRIPOS>ATOM
      1 C1         -1.4226   -0.4729    0.5488 C.3       1 <0>        -0.1431
      2 C2         -0.0255    0.0329    0.1842 C.3       1 <0>         0.1068
      3 C3         -0.0285    1.5624    0.1320 C.3       1 <0>        -0.1328
      4 C4          1.3864    2.0704    0.0591 C.ar      1 <0>         0.1371
      5 C5          2.4506    1.2847    0.3746 C.ar      1 <0>        -0.1159
      6 C6          3.7470    1.8044    0.2978 C.ar      1 <0>         0.4039
      7 C7          2.9389    3.8413   -0.4007 C.ar      1 <0>         0.1002
      8 C8          1.6026    3.4088   -0.3511 C.ar      1 <0>        -0.0884
      9 C9          0.5879    4.4068   -0.7338 C.ar      1 <0>         0.1669
     10 C10         1.0791    5.6686   -1.1031 C.ar      1 <0>        -0.2685
     11 S1          2.8364    5.5294   -0.9442 S.3       1 <0>         0.2703
     12 C11         0.2038    6.6772   -1.4814 C.ar      1 <0>         0.4563
     13 N1         -1.1006    6.3995   -1.4775 N.ar      1 <0>        -0.2988
     14 N2         -1.5152    5.2347   -1.1333 N.ar      1 <0>         0.0842
     15 N3         -0.7546    4.2693   -0.7768 N.ar      1 <0>        -0.2775
     16 N4          0.6696    7.9305   -1.8502 N.pl3     1 <0>        -0.6735
     17 C12        -0.2769    8.9766   -2.2450 C.3       1 <0>         0.1153
     18 C13         0.4910   10.2512   -2.6009 C.3       1 <0>        -0.1375
     19 C14        -0.4974   11.3438   -3.0133 C.3       1 <0>         0.0797
     20 O1          0.2198   12.5343   -3.3457 O.3       1 <0>        -0.5743
     21 N5          4.8316    1.0019    0.6246 N.pl3     1 <0>        -0.4962
     22 C15         5.5716    1.5562    1.7676 C.3       1 <0>         0.0040
     23 C16         6.7204    0.6119    2.1313 C.3       1 <0>         0.0629
     24 O2          7.5558    0.4224    0.9860 O.3       1 <0>        -0.3710
     25 C17         6.8675   -0.1169   -0.1457 C.3       1 <0>         0.0629
     26 C18         5.7201    0.8201   -0.5324 C.3       1 <0>         0.0052
     27 C19         2.2712   -0.1473    0.8091 C.3       1 <0>         0.1136
     28 O3          0.9139   -0.3836    1.1820 O.3       1 <0>        -0.3472
     29 C20         0.3872   -0.5283   -1.1781 C.3       1 <0>        -0.1877
     30 H1         -2.1378   -0.1383   -0.2027 H         1 <0>         0.0836
     31 H2         -1.4167   -1.5623    0.5850 H         1 <0>         0.0775
     32 H3         -1.7089   -0.0785    1.5238 H         1 <0>         0.0735
     33 H4         -0.5787    1.8941   -0.7485 H         1 <0>         0.1343
     34 H5         -0.5090    1.9549    1.0282 H         1 <0>         0.1345
     35 H6          1.6220    8.1143   -1.8466 H         1 <0>         0.4186
     36 H7         -0.8473    8.6422   -3.1116 H         1 <0>         0.0899
     37 H8         -0.9577    9.1814   -1.4188 H         1 <0>         0.0900
     38 H9          1.0615   10.5856   -1.7344 H         1 <0>         0.0815
     39 H10         1.1718   10.0465   -3.4271 H         1 <0>         0.0814
     40 H11        -1.0679   11.0094   -3.8798 H         1 <0>         0.0538
     41 H12        -1.1783   11.5485   -2.1871 H         1 <0>         0.0539
     42 H13        -0.3449   13.2708   -3.6171 H         1 <0>         0.3904
     43 H14         5.9742    2.5335    1.5012 H         1 <0>         0.0611
     44 H15         4.9006    1.6585    2.6205 H         1 <0>         0.1130
     45 H16         6.3152   -0.3487    2.4492 H         1 <0>         0.0790
     46 H17         7.3065    1.0458    2.9415 H         1 <0>         0.1206
     47 H18         6.4665   -1.0987    0.1060 H         1 <0>         0.0788
     48 H19         7.5593   -0.2100   -0.9828 H         1 <0>         0.1203
     49 H20         5.1576    0.3850   -1.3585 H         1 <0>         0.1116
     50 H21         6.1251    1.7856   -0.8356 H         1 <0>         0.0613
     51 H22         2.9202   -0.3502    1.6609 H         1 <0>         0.1347
     52 H23         2.5395   -0.8086   -0.0148 H         1 <0>         0.0965
     53 H24         1.3865   -0.1732   -1.4297 H         1 <0>         0.0533
     54 H25         0.3882   -1.6175   -1.1371 H         1 <0>         0.0833
     55 H26        -0.3193   -0.1939   -1.9379 H         1 <0>         0.0812
     56 N6          4.0178    3.0831   -0.0877 N.ar      1 <0>        -0.4862
     57 H27         4.9761    3.4481   -0.1378 H         1 <0>         0.4717
@<TRIPOS>BOND
     1    1    2 1
     2    1   30 1
     3    1   31 1
     4    1   32 1
     5    2   28 1
     6    2    3 1
     7    2   29 1
     8    3    4 1
     9    3   33 1
    10    3   34 1
    11    4    8 ar
    12    4    5 ar
    13    5    6 ar
    14    5   27 1
    15    6   21 1
    16    6   56 ar
    17    7   11 1
    18    7    8 ar
    19    7   56 ar
    20    8    9 1
    21    9   15 ar
    22    9   10 ar
    23   10   11 1
    24   10   12 ar
    25   12   13 ar
    26   12   16 1
    27   13   14 ar
    28   14   15 ar
    29   16   17 1
    30   16   35 1
    31   17   18 1
    32   17   36 1
    33   17   37 1
    34   18   19 1
    35   18   38 1
    36   18   39 1
    37   19   20 1
    38   19   40 1
    39   19   41 1
    40   20   42 1
    41   21   26 1
    42   21   22 1
    43   22   23 1
    44   22   43 1
    45   22   44 1
    46   23   24 1
    47   23   45 1
    48   23   46 1
    49   24   25 1
    50   25   26 1
    51   25   47 1
    52   25   48 1
    53   26   49 1
    54   26   50 1
    55   27   28 1
    56   27   51 1
    57   27   52 1
    58   29   53 1
    59   29   54 1
    60   29   55 1
    61   56   57 1
@<TRIPOS>MOLECULE
ZINC25078454
   58    60     0     0     0
SMALL
USER_CHARGES
4-[[4-[(2E)-2-isopropyliminopyridine-1-carbonyl]-1-piperidyl]sulfonyl]-1-methyl-pyrrole-2-carboxamide
@<TRIPOS>ATOM
      1 C1          0.3533   -0.2653    8.2095 C.3       1 <0>        -0.1715
      2 C2          1.3104    0.9204    8.3469 C.3       1 <0>         0.1005
      3 C3          2.6912    0.4150    8.7698 C.3       1 <0>        -0.1707
      4 N1          1.4170    1.6136    7.0607 N.pl3     1 <0>        -0.6180
      5 C4          1.1701    2.9020    6.9863 C.cat     1 <0>         0.4962
      6 C5          0.6802    3.6011    8.1163 C.2       1 <0>        -0.2258
      7 C6          0.4263    4.9307    8.0171 C.2       1 <0>         0.0470
      8 C7          0.6564    5.5987    6.7995 C.2       1 <0>        -0.1605
      9 C8          1.1267    4.9287    5.7299 C.2       1 <0>         0.1094
     10 N2          1.3908    3.5860    5.8064 N.am      1 <0>        -0.4642
     11 C9          1.8615    2.9305    4.7269 C.2       1 <0>         0.5347
     12 O1          2.0955    1.7430    4.7933 O.2       1 <0>        -0.4491
     13 C10         2.0969    3.6740    3.4374 C.3       1 <0>        -0.1040
     14 C11         3.1573    2.9409    2.6125 C.3       1 <0>        -0.1260
     15 C12         3.4190    3.7179    1.3185 C.3       1 <0>         0.1196
     16 N3          2.1420    3.9167    0.6197 N.pl3     1 <0>        -1.0015
     17 C13         1.0268    4.5363    1.3486 C.3       1 <0>         0.1211
     18 C14         0.7902    3.7451    2.6440 C.3       1 <0>        -0.1343
     19 S1          1.9649    3.4574   -0.9614 S.o2      1 <0>         2.7163
     20 O2          3.2678    3.4432   -1.5285 O.2       1 <0>        -0.9470
     21 O3          0.9095    4.2438   -1.4970 O.2       1 <0>        -0.9527
     22 C15         1.3985    1.7890   -0.9590 C.2       1 <0>        -0.7552
     23 C16         2.2041    0.6460   -0.9726 C.2       1 <0>        -0.0561
     24 C17         1.3604   -0.4443   -0.9654 C.2       1 <0>        -0.0479
     25 N4          0.0686    0.0310   -0.9478 N.pl3     1 <0>        -0.3960
     26 C18         0.1055    1.3858   -0.9440 C.2       1 <0>         0.1360
     27 C19        -1.1441   -0.7908   -0.9347 C.3       1 <0>         0.0611
     28 C20         1.7654   -1.8540   -0.9753 C.2       1 <0>         0.5906
     29 O4          0.9240   -2.7282   -1.0689 O.2       1 <0>        -0.5514
     30 N5          3.0694   -2.1812   -0.8807 N.am      1 <0>        -0.8629
     31 H1         -0.6394    0.0981    7.9055 H         1 <0>         0.0698
     32 H2          0.2733   -0.7857    9.1753 H         1 <0>         0.0972
     33 H3          0.7379   -0.9608    7.4490 H         1 <0>         0.0736
     34 H4          0.9239    1.6476    9.0762 H         1 <0>         0.1136
     35 H5          3.3793    1.2675    8.8686 H         1 <0>         0.0684
     36 H6          3.0758   -0.2805    8.0093 H         1 <0>         0.0739
     37 H7          2.6112   -0.1054    9.7356 H         1 <0>         0.0968
     38 H8          0.5066    3.0807    9.0466 H         1 <0>         0.1835
     39 H9          0.0484    5.4748    8.8701 H         1 <0>         0.1740
     40 H10         0.4539    6.6567    6.7223 H         1 <0>         0.1827
     41 H11         1.2978    5.4550    4.8025 H         1 <0>         0.2039
     42 H12         2.4451    4.6900    3.6751 H         1 <0>         0.1240
     43 H13         4.0886    2.8689    3.1934 H         1 <0>         0.0902
     44 H14         2.7982    1.9302    2.3688 H         1 <0>         0.0916
     45 H15         3.8674    4.6928    1.5605 H         1 <0>         0.0858
     46 H16         4.1083    3.1456    0.6802 H         1 <0>         0.1092
     47 H17         1.2796    5.5799    1.5874 H         1 <0>         0.0885
     48 H18         0.1218    4.5121    0.7238 H         1 <0>         0.1090
     49 H19         0.4547    2.7268    2.3981 H         1 <0>         0.0887
     50 H20         0.0212    4.2485    3.2483 H         1 <0>         0.0875
     51 H21         3.2837    0.6220   -0.9865 H         1 <0>         0.1598
     52 H22        -0.7556    2.0375   -0.9353 H         1 <0>         0.1878
     53 H23        -2.0293   -0.1379   -0.9218 H         1 <0>         0.0954
     54 H24        -1.1454   -1.4282   -0.0382 H         1 <0>         0.0910
     55 H25        -1.1681   -1.4233   -1.8343 H         1 <0>         0.0972
     56 H26         3.3731   -3.2384   -0.8881 H         1 <0>         0.4367
     57 H27         3.8300   -1.3910   -0.7961 H         1 <0>         0.4235
     58 H28         1.7037    1.0555    6.1572 H         1 <0>         0.4596
@<TRIPOS>BOND
     1    1    2 1
     2    1   31 1
     3    1   32 1
     4    1   33 1
     5    2    3 1
     6    2    4 1
     7    2   34 1
     8    3   35 1
     9    3   36 1
    10    3   37 1
    11    4    5 2
    12    4   58 1
    13    5   10 1
    14    5    6 1
    15    6    7 2
    16    6   38 1
    17    7    8 1
    18    7   39 1
    19    8    9 2
    20    8   40 1
    21    9   10 1
    22    9   41 1
    23   10   11 am
    24   11   12 2
    25   11   13 1
    26   13   18 1
    27   13   14 1
    28   13   42 1
    29   14   15 1
    30   14   43 1
    31   14   44 1
    32   15   16 1
    33   15   45 1
    34   15   46 1
    35   16   17 1
    36   16   19 1
    37   17   18 1
    38   17   47 1
    39   17   48 1
    40   18   49 1
    41   18   50 1
    42   19   20 2
    43   19   21 2
    44   19   22 1
    45   22   26 2
    46   22   23 1
    47   23   24 2
    48   23   51 1
    49   24   25 1
    50   24   28 1
    51   25   26 1
    52   25   27 1
    53   26   52 1
    54   27   53 1
    55   27   54 1
    56   27   55 1
    57   28   29 2
    58   28   30 am
    59   30   56 1
    60   30   57 1
@<TRIPOS>MOLECULE
ZINC39661018
   61    64     0     0     0
SMALL
USER_CHARGES

@<TRIPOS>ATOM
      1 C1          3.1951    1.6800    3.0900 C.3       1 <0>         0.0232
      2 O1          3.3142    0.2595    3.1907 O.3       1 <0>        -0.3099
      3 C2          2.3162   -0.4836    2.6441 C.ar      1 <0>         0.1660
      4 C3          2.3668   -1.8662    2.7118 C.ar      1 <0>        -0.1705
      5 C4          1.3418   -2.6280    2.1503 C.ar      1 <0>        -0.0622
      6 C5          0.2696   -1.9933    1.5227 C.ar      1 <0>        -0.1297
      7 C6          0.2268   -0.6102    1.4595 C.ar      1 <0>         0.1679
      8 C7          1.2454    0.1437    2.0241 C.ar      1 <0>        -0.2719
      9 O2         -0.8172    0.0092    0.8484 O.3       1 <0>        -0.3075
     10 C8         -0.7973    1.4377    0.8195 C.3       1 <0>         0.0232
     11 C9          1.3918   -4.1043    2.2198 C.2       1 <0>         0.5942
     12 O3          0.7970   -4.7720    1.3965 O.2       1 <0>        -0.5176
     13 N1          2.0970   -4.7094    3.1960 N.am      1 <0>        -0.6180
     14 C10         2.7748   -4.0772    4.3523 C.3       1 <0>         0.1016
     15 C11         2.5185   -5.0431    5.5309 C.3       1 <0>        -0.1122
     16 H1          1.6466   -4.7229    6.1012 H         1 <0>         0.1151
     17 C12         2.2553   -6.4068    4.8705 C.3       1 <0>        -0.0745
     18 C13         2.3643   -6.1585    3.3591 C.3       1 <0>         0.1087
     19 C14         0.8542   -6.9005    5.2181 C.3       1 <0>        -0.1338
     20 C15         0.6368   -8.2834    4.5974 C.3       1 <0>        -0.0111
     21 N2          1.6475   -9.2162    5.1105 N.4       1 <0>        -0.5044
     22 C16         2.9865   -8.7836    4.6927 C.3       1 <0>        -0.0067
     23 C17         3.3031   -7.4217    5.3171 C.3       1 <0>        -0.1429
     24 C18         3.7307   -5.1150    6.4234 C.2       1 <0>         0.5253
     25 O4          4.8294   -4.8644    5.9753 O.2       1 <0>        -0.5049
     26 N3          3.5937   -5.4577    7.7196 N.am      1 <0>        -0.7166
     27 C19         4.7720   -5.5276    8.5873 C.3       1 <0>         0.0711
     28 H2          5.4819   -4.7585    8.2828 H         1 <0>         0.1333
     29 C20         4.3425   -5.2643   10.0320 C.3       1 <0>        -0.1314
     30 C21         5.4075   -5.8928   10.9616 C.3       1 <0>        -0.0866
     31 S1          6.0105   -7.2940    9.9429 S.3       1 <0>        -0.1295
     32 C22         5.4188   -6.8833    8.4291 C.2       1 <0>         0.3336
     33 O5          5.4961   -7.5416    7.4129 O.2       1 <0>        -0.4041
     34 H3          2.2817    2.0043    3.5886 H         1 <0>         0.0586
     35 H4          4.0555    2.1513    3.5652 H         1 <0>         0.1080
     36 H5          3.1574    1.9678    2.0394 H         1 <0>         0.0595
     37 H6          3.1987   -2.3537    3.1982 H         1 <0>         0.1443
     38 H7         -0.5258   -2.5794    1.0865 H         1 <0>         0.1458
     39 H8          1.2068    1.2220    1.9769 H         1 <0>         0.1429
     40 H9          0.0942    1.7781    0.2928 H         1 <0>         0.0592
     41 H10        -1.6855    1.8031    0.3041 H         1 <0>         0.1088
     42 H11        -0.7854    1.8216    1.8396 H         1 <0>         0.0584
     43 H12         3.8441   -3.9850    4.1621 H         1 <0>         0.1044
     44 H13         2.3392   -3.0999    4.5603 H         1 <0>         0.1051
     45 H14         1.6186   -6.7457    2.8232 H         1 <0>         0.0927
     46 H15         3.3667   -6.4025    3.0072 H         1 <0>         0.0872
     47 H16         0.7501   -6.9673    6.3010 H         1 <0>         0.0947
     48 H17         0.1145   -6.2041    4.8231 H         1 <0>         0.1193
     49 H18        -0.3575   -8.6461    4.8578 H         1 <0>         0.1400
     50 H19         0.7250   -8.2128    3.5133 H         1 <0>         0.1350
     51 H20         1.6019   -9.2385    6.1182 H         1 <0>         0.4265
     52 H21         3.7240   -9.5149    5.0234 H         1 <0>         0.1400
     53 H22         3.0189   -8.7013    3.6063 H         1 <0>         0.1331
     54 H23         4.2901   -7.0929    4.9918 H         1 <0>         0.1271
     55 H24         3.2871   -7.5070    6.4036 H         1 <0>         0.0974
     56 H25         2.7149   -5.6582    8.0780 H         1 <0>         0.4048
     57 H26         4.2839   -4.1906   10.2101 H         1 <0>         0.1125
     58 H27         3.3719   -5.7240   10.2183 H         1 <0>         0.0944
     59 H28         6.2112   -5.1860   11.1681 H         1 <0>         0.1193
     60 H29         4.9559   -6.2493   11.8874 H         1 <0>         0.1297
     61 H30         1.4656  -10.1400    4.7478 H         1 <0>         0.4340
@<TRIPOS>BOND
     1    1    2 1
     2    1   34 1
     3    1   35 1
     4    1   36 1
     5    2    3 1
     6    3    8 ar
     7    3    4 ar
     8    4    5 ar
     9    4   37 1
    10    5    6 ar
    11    5   11 1
    12    6    7 ar
    13    6   38 1
    14    7    8 ar
    15    7    9 1
    16    8   39 1
    17    9   10 1
    18   10   40 1
    19   10   41 1
    20   10   42 1
    21   11   12 2
    22   11   13 am
    23   13   18 1
    24   13   14 1
    25   14   15 1
    26   14   43 1
    27   14   44 1
    28   15   16 1
    29   15   17 1
    30   15   24 1
    31   17   23 1
    32   17   18 1
    33   17   19 1
    34   18   45 1
    35   18   46 1
    36   19   20 1
    37   19   47 1
    38   19   48 1
    39   20   21 1
    40   20   49 1
    41   20   50 1
    42   21   22 1
    43   21   51 1
    44   21   61 1
    45   22   23 1
    46   22   52 1
    47   22   53 1
    48   23   54 1
    49   23   55 1
    50   24   25 2
    51   24   26 am
    52   26   27 1
    53   26   56 1
    54   27   28 1
    55   27   32 1
    56   27   29 1
    57   29   30 1
    58   29   57 1
    59   29   58 1
    60   30   31 1
    61   30   59 1
    62   30   60 1
    63   31   32 1
    64   32   33 2
@<TRIPOS>MOLECULE
ZINC30154670
   55    57     0     0     0
SMALL
USER_CHARGES

@<TRIPOS>ATOM
      1 C1         -0.0187    1.5258    0.0104 C.3       1 <0>        -0.1555
      2 C2          0.0021   -0.0041    0.0020 C.3       1 <0>        -0.1202
      3 C3          0.7182   -0.4975   -1.2568 C.3       1 <0>         0.1345
      4 C4          0.8483   -2.0076   -1.2391 C.2       1 <0>         0.5333
      5 O1         -0.0515   -2.8199   -1.2213 O.2       1 <0>        -0.4473
      6 N1          2.1722   -2.2594   -1.2480 N.am      1 <0>        -0.3781
      7 C5          2.8892   -1.1301   -1.2686 C.2       1 <0>         0.7078
      8 O2          4.1042   -1.1013   -1.2804 O.2       1 <0>        -0.5238
      9 N2          2.1150   -0.0299   -1.2754 N.am      1 <0>        -0.7077
     10 N3          2.7289   -3.5450   -1.2362 N.am      1 <0>        -0.5024
     11 C6          3.2635   -4.0582   -2.3620 C.2       1 <0>         0.5224
     12 O3          3.2626   -3.4071   -3.3852 O.2       1 <0>        -0.4968
     13 C7          3.8623   -5.4410   -2.3494 C.3       1 <0>         0.0481
     14 N4          4.3735   -5.7655   -3.6878 N.3       1 <0>        -0.5215
     15 C8          3.2755   -5.8745   -4.6588 C.3       1 <0>         0.0178
     16 C9          3.8531   -6.1537   -6.0481 C.3       1 <0>         0.0003
     17 N5          4.6264   -7.4020   -6.0153 N.4       1 <0>        -0.3887
     18 C10         5.7337   -7.2691   -5.0594 C.3       1 <0>        -0.0055
     19 C11         5.1718   -6.9993   -3.6619 C.3       1 <0>         0.0288
     20 C12         5.1656   -7.6790   -7.3534 C.3       1 <0>         0.0418
     21 C13         5.8545   -9.0193   -7.3498 C.ar      1 <0>        -0.1655
     22 C14         7.2311   -9.0882   -7.2430 C.ar      1 <0>        -0.0468
     23 C15         7.8640  -10.3166   -7.2396 C.ar      1 <0>        -0.1433
     24 C16         7.1193  -11.4796   -7.3433 C.ar      1 <0>         0.1555
     25 C17         5.7410  -11.4106   -7.4498 C.ar      1 <0>        -0.1416
     26 C18         5.1086  -10.1803   -7.4477 C.ar      1 <0>         0.0048
     27 Cl1         3.3795  -10.0929   -7.5752 Cl        1 <0>        -0.0392
     28 F1          7.7378  -12.6807   -7.3409 F         1 <0>        -0.1129
     29 C19        -0.0219   -0.0323   -2.5125 C.3       1 <0>        -0.1523
     30 H1          1.0039    1.9031    0.0027 H         1 <0>         0.0587
     31 H2         -0.5459    1.8868   -0.8726 H         1 <0>         0.0671
     32 H3         -0.5289    1.8773    0.9072 H         1 <0>         0.0718
     33 H4          0.5293   -0.3651    0.8851 H         1 <0>         0.0767
     34 H5         -1.0205   -0.3814    0.0098 H         1 <0>         0.0950
     35 H6          2.4176    0.8916   -1.2899 H         1 <0>         0.4466
     36 H7          2.7296   -4.0658   -0.4179 H         1 <0>         0.4294
     37 H8          4.6802   -5.4762   -1.6297 H         1 <0>         0.1297
     38 H9          3.0983   -6.1653   -2.0668 H         1 <0>         0.0882
     39 H10         2.6137   -6.6908   -4.3693 H         1 <0>         0.0609
     40 H11         2.7141   -4.9405   -4.6792 H         1 <0>         0.1394
     41 H12         3.0396   -6.2490   -6.7673 H         1 <0>         0.1381
     42 H13         4.5041   -5.3307   -6.3430 H         1 <0>         0.1448
     43 H14         6.3145   -8.1915   -5.0456 H         1 <0>         0.1358
     44 H15         6.3751   -6.4404   -5.3593 H         1 <0>         0.1439
     45 H16         5.9938   -6.8858   -2.9550 H         1 <0>         0.1297
     46 H17         4.5412   -7.8341   -3.3560 H         1 <0>         0.0648
     47 H18         4.3513   -7.6909   -8.0779 H         1 <0>         0.1423
     48 H19         5.8817   -6.9032   -7.6243 H         1 <0>         0.1487
     49 H20         7.8122   -8.1815   -7.1625 H         1 <0>         0.1563
     50 H21         8.9395  -10.3697   -7.1565 H         1 <0>         0.1590
     51 H22         5.1593  -12.3170   -7.5311 H         1 <0>         0.1612
     52 H23        -0.0583    1.0569   -2.5302 H         1 <0>         0.0912
     53 H24         0.5022   -0.3928   -3.3976 H         1 <0>         0.0699
     54 H25        -1.0368   -0.4297   -2.5042 H         1 <0>         0.0889
     55 H26         4.0263   -8.1618   -5.7310 H         1 <0>         0.4164
@<TRIPOS>BOND
     1    1    2 1
     2    1   30 1
     3    1   31 1
     4    1   32 1
     5    2    3 1
     6    2   33 1
     7    2   34 1
     8    3    9 1
     9    3    4 1
    10    3   29 1
    11    4    5 2
    12    4    6 am
    13    6    7 am
    14    6   10 1
    15    7    8 2
    16    7    9 am
    17    9   35 1
    18   10   11 am
    19   10   36 1
    20   11   12 2
    21   11   13 1
    22   13   14 1
    23   13   37 1
    24   13   38 1
    25   14   19 1
    26   14   15 1
    27   15   16 1
    28   15   39 1
    29   15   40 1
    30   16   17 1
    31   16   41 1
    32   16   42 1
    33   17   18 1
    34   17   20 1
    35   17   55 1
    36   18   19 1
    37   18   43 1
    38   18   44 1
    39   19   45 1
    40   19   46 1
    41   20   21 1
    42   20   47 1
    43   20   48 1
    44   21   26 ar
    45   21   22 ar
    46   22   23 ar
    47   22   49 1
    48   23   24 ar
    49   23   50 1
    50   24   25 ar
    51   24   28 1
    52   25   26 ar
    53   25   51 1
    54   26   27 1
    55   29   52 1
    56   29   53 1
    57   29   54 1
@<TRIPOS>MOLECULE
ZINC63926006
   53    56     0     0     0
SMALL
USER_CHARGES

@<TRIPOS>ATOM
      1 C1         -0.7551    1.5823   -0.1024 C.ar      1 <0>        -0.1480
      2 C2          0.3776    2.4078   -0.0906 C.ar      1 <0>         0.0544
      3 C3          1.6357    1.9194   -0.0590 C.ar      1 <0>        -0.2089
      4 C4          1.8612    0.5154   -0.0365 C.ar      1 <0>         0.3308
      5 N1          2.9652   -0.1910   -0.0060 N.pl3     1 <0>        -0.5799
      6 C5          2.6096   -1.6144    0.0051 C.3       1 <0>         0.0642
      7 C6          1.0984   -1.6646   -0.0239 C.2       1 <0>         0.0795
      8 C7          0.6811   -0.3783   -0.0483 C.ar      1 <0>        -0.1546
      9 C8         -0.6526    0.2339   -0.0826 C.ar      1 <0>        -0.0145
     10 C9          0.2327   -2.8981   -0.0260 C.3       1 <0>        -0.1040
     11 C10         0.0736   -3.3978   -1.4388 C.2       1 <0>         0.5221
     12 O1          0.6103   -2.8101   -2.3539 O.2       1 <0>        -0.5324
     13 N2         -0.6652   -4.4978   -1.6854 N.am      1 <0>        -0.5014
     14 N3         -0.8130   -4.9623   -2.9989 N.am      1 <0>        -0.5160
     15 C11        -1.5518   -6.0622   -3.2455 C.2       1 <0>         0.5972
     16 O2         -2.0904   -6.6520   -2.3272 O.2       1 <0>        -0.4854
     17 C12        -1.7065   -6.5482   -4.6197 C.2       1 <0>        -0.1749
     18 C13        -2.3483   -7.6895   -5.0761 C.2       1 <0>        -0.6100
     19 C14        -2.3277   -7.8822   -6.4366 C.2       1 <0>        -0.1231
     20 C15        -1.7004   -6.9720   -7.2219 C.2       1 <0>        -0.2181
     21 S1         -1.1254   -5.8220   -6.1405 S.3       1 <0>         0.2870
     22 S2         -3.1393   -8.8209   -3.9813 S.o2      1 <0>         2.7011
     23 O3         -2.1148   -9.6382   -3.4320 O.2       1 <0>        -0.9425
     24 O4         -4.0188   -8.0539   -3.1704 O.2       1 <0>        -0.9239
     25 N4         -4.0910   -9.8122   -4.9053 N.pl3     1 <0>        -0.9966
     26 C16        -5.4401   -9.3920   -5.3081 C.3       1 <0>         0.1175
     27 C17        -5.5606   -9.5140   -6.8304 C.3       1 <0>        -0.1393
     28 C18        -5.1927  -10.9376   -7.2548 C.3       1 <0>        -0.1207
     29 C19        -3.7435  -11.2311   -6.8599 C.3       1 <0>        -0.1391
     30 C20        -3.6001  -11.1260   -5.3431 C.3       1 <0>         0.1119
     31 H1         -1.7354    2.0349   -0.1234 H         1 <0>         0.1586
     32 H2          0.2382    3.4786   -0.1079 H         1 <0>         0.1616
     33 H3          2.4754    2.5985   -0.0512 H         1 <0>         0.1615
     34 H4          3.0189   -2.1107   -0.8749 H         1 <0>         0.1776
     35 H5          2.9840   -2.0881    0.9125 H         1 <0>         0.1759
     36 H6         -1.5388   -0.3833   -0.0919 H         1 <0>         0.1600
     37 H7          0.7011   -3.6718    0.5824 H         1 <0>         0.1499
     38 H8         -0.7468   -2.6553    0.3860 H         1 <0>         0.1466
     39 H9         -1.0944   -4.9678   -0.9535 H         1 <0>         0.4433
     40 H10        -0.3838   -4.4922   -3.7308 H         1 <0>         0.4356
     41 H11        -2.8043   -8.7469   -6.8743 H         1 <0>         0.1574
     42 H12        -1.5976   -6.9818   -8.2969 H         1 <0>         0.2044
     43 H13        -6.1805  -10.0337   -4.8304 H         1 <0>         0.0821
     44 H14        -5.6044   -8.3565   -5.0103 H         1 <0>         0.0887
     45 H15        -6.5852   -9.2975   -7.1328 H         1 <0>         0.0806
     46 H16        -4.8828   -8.8057   -7.3069 H         1 <0>         0.0652
     47 H17        -5.8550  -11.6470   -6.7587 H         1 <0>         0.0699
     48 H18        -5.3013  -11.0340   -8.3351 H         1 <0>         0.0685
     49 H19        -3.4748  -12.2367   -7.1833 H         1 <0>         0.0826
     50 H20        -3.0829  -10.5066   -7.3361 H         1 <0>         0.0639
     51 H21        -2.5509  -11.2341   -5.0684 H         1 <0>         0.0950
     52 H22        -4.1872  -11.9122   -4.8683 H         1 <0>         0.0821
     53 H23         3.8664    0.1674    0.0069 H         1 <0>         0.4566
@<TRIPOS>BOND
     1    1    9 ar
     2    1    2 ar
     3    1   31 1
     4    2    3 ar
     5    2   32 1
     6    3    4 ar
     7    3   33 1
     8    4    8 ar
     9    4    5 2
    10    5    6 1
    11    5   53 1
    12    6    7 1
    13    6   34 1
    14    6   35 1
    15    7    8 2
    16    7   10 1
    17    8    9 ar
    18    9   36 1
    19   10   11 1
    20   10   37 1
    21   10   38 1
    22   11   12 2
    23   11   13 am
    24   13   14 1
    25   13   39 1
    26   14   15 am
    27   14   40 1
    28   15   16 2
    29   15   17 1
    30   17   21 1
    31   17   18 2
    32   18   19 1
    33   18   22 1
    34   19   20 2
    35   19   41 1
    36   20   21 1
    37   20   42 1
    38   22   23 2
    39   22   24 2
    40   22   25 1
    41   25   30 1
    42   25   26 1
    43   26   27 1
    44   26   43 1
    45   26   44 1
    46   27   28 1
    47   27   45 1
    48   27   46 1
    49   28   29 1
    50   28   47 1
    51   28   48 1
    52   29   30 1
    53   29   49 1
    54   29   50 1
    55   30   51 1
    56   30   52 1
@<TRIPOS>MOLECULE
ZINC04113476
   38    40     0     0     0
SMALL
USER_CHARGES
N'-(4-bromophenyl)sulfonyl-2-phenyl-cyclopropane-1-carbohydrazide
@<TRIPOS>ATOM
      1 C1         -0.0126    1.0758    0.0080 C.ar      1 <0>        -0.1200
      2 C2         -1.2190    1.7506    0.0173 C.ar      1 <0>        -0.1177
      3 C3         -1.2377    3.1328    0.0299 C.ar      1 <0>        -0.1193
      4 C4         -0.0501    3.8402    0.0228 C.ar      1 <0>        -0.0598
      5 C5          1.1563    3.1654    0.0076 C.ar      1 <0>        -0.1065
      6 C6          1.1750    1.7832    0.0004 C.ar      1 <0>        -0.1165
      7 C7         -0.0705    5.3471    0.0311 C.3       1 <0>        -0.0732
      8 H1          0.8141    5.8269    0.4499 H         1 <0>         0.1303
      9 C8         -1.4193    6.0341    0.2541 C.3       1 <0>        -0.1414
     10 C9         -0.7716    6.0505   -1.1327 C.3       1 <0>        -0.1783
     11 H2         -1.2180    5.4234   -1.9044 H         1 <0>         0.1338
     12 C10        -0.1866    7.3540   -1.6119 C.2       1 <0>         0.5497
     13 O1          0.8036    7.8071   -1.0779 O.2       1 <0>        -0.5127
     14 N1         -0.7638    8.0164   -2.6340 N.am      1 <0>        -0.5093
     15 N2         -0.2200    9.2282   -3.0795 N.pl3     1 <0>        -0.9036
     16 S1          0.1881    9.4164   -4.6734 S.o2      1 <0>         2.6960
     17 O2          0.5684   10.7757   -4.8375 O.2       1 <0>        -0.9322
     18 O3          1.0537    8.3382   -5.0010 O.2       1 <0>        -0.9330
     19 C11        -1.2816    9.1872   -5.6180 C.ar      1 <0>        -0.6726
     20 C12        -1.6217    7.9265   -6.0719 C.ar      1 <0>        -0.0170
     21 C13        -2.7769    7.7454   -6.8088 C.ar      1 <0>        -0.1103
     22 C14        -3.5873    8.8276   -7.1010 C.ar      1 <0>        -0.0356
     23 C15        -3.2439   10.0898   -6.6511 C.ar      1 <0>        -0.1104
     24 C16        -2.0912   10.2690   -5.9098 C.ar      1 <0>        -0.0081
     25 Br1        -5.1646    8.5816   -8.1148 Br        1 <0>        -0.0271
     26 H3          0.0021   -0.0041    0.0020 H         1 <0>         0.1227
     27 H4         -2.1469    1.1980    0.0187 H         1 <0>         0.1233
     28 H5         -2.1802    3.6600    0.0414 H         1 <0>         0.1239
     29 H6          2.0842    3.7181    0.0017 H         1 <0>         0.1250
     30 H7          2.1175    1.2560   -0.0115 H         1 <0>         0.1244
     31 H8         -2.2918    5.3961    0.3948 H         1 <0>         0.1141
     32 H9         -1.4221    6.9659    0.8197 H         1 <0>         0.1086
     33 H10        -1.5558    7.6541   -3.0611 H         1 <0>         0.4208
     34 H11        -0.0825    9.9571   -2.4544 H         1 <0>         0.4311
     35 H12        -0.9867    7.0822   -5.8471 H         1 <0>         0.1528
     36 H13        -3.0448    6.7597   -7.1596 H         1 <0>         0.1475
     37 H14        -3.8766   10.9349   -6.8788 H         1 <0>         0.1473
     38 H15        -1.8232   11.2544   -5.5582 H         1 <0>         0.1533
@<TRIPOS>BOND
     1    1    6 ar
     2    1    2 ar
     3    1   26 1
     4    2    3 ar
     5    2   27 1
     6    3    4 ar
     7    3   28 1
     8    4    5 ar
     9    4    7 1
    10    5    6 ar
    11    5   29 1
    12    6   30 1
    13    7    8 1
    14    7   10 1
    15    7    9 1
    16    9   10 1
    17    9   31 1
    18    9   32 1
    19   10   11 1
    20   10   12 1
    21   12   13 2
    22   12   14 am
    23   14   15 1
    24   14   33 1
    25   15   16 1
    26   15   34 1
    27   16   17 2
    28   16   18 2
    29   16   19 1
    30   19   24 ar
    31   19   20 ar
    32   20   21 ar
    33   20   35 1
    34   21   22 ar
    35   21   36 1
    36   22   23 ar
    37   22   25 1
    38   23   24 ar
    39   23   37 1
    40   24   38 1
@<TRIPOS>MOLECULE
ZINC23132935
   38    40     0     0     0
SMALL
USER_CHARGES
N-(4-bromophenyl)-3-(cyclopropylsulfamoyl)benzamide
@<TRIPOS>ATOM
      1 C1         -1.4130    3.5272    3.1363 C.ar      1 <0>        -0.1405
      2 C2         -2.3383    2.6728    3.6999 C.ar      1 <0>        -0.0314
      3 C3         -2.5587    1.4162    3.1339 C.ar      1 <0>        -0.1542
      4 C4         -1.8402    1.0324    2.0000 C.ar      1 <0>         0.0422
      5 C5         -0.9181    1.8962    1.4466 C.ar      1 <0>        -0.6894
      6 C6         -0.7004    3.1385    2.0161 C.ar      1 <0>         0.0039
      7 S1         -0.0103    1.4139    0.0156 S.o2      1 <0>         2.6943
      8 O1          0.0008   -0.0070    0.0014 O.2       1 <0>        -0.9502
      9 O2          1.1832    2.1851    0.0128 O.2       1 <0>        -0.9492
     10 N1         -0.8868    1.8936   -1.3050 N.pl3     1 <0>        -1.1186
     11 C7         -1.1056    3.3194   -1.5604 C.3       1 <0>         0.0170
     12 C8         -2.4341    3.7266   -2.2010 C.3       1 <0>        -0.1373
     13 C9         -1.1425    3.7783   -3.0195 C.3       1 <0>        -0.1334
     14 C10        -3.5481    0.4955    3.7325 C.2       1 <0>         0.5631
     15 O3         -3.7376   -0.5985    3.2376 O.2       1 <0>        -0.5092
     16 N2         -4.2400    0.8690    4.8272 N.am      1 <0>        -0.6819
     17 C11        -5.2443    0.0392    5.3366 C.ar      1 <0>         0.1636
     18 C12        -6.3816    0.5941    5.9088 C.ar      1 <0>        -0.1394
     19 C13        -7.3743   -0.2276    6.4054 C.ar      1 <0>        -0.0706
     20 C14        -7.2310   -1.6025    6.3444 C.ar      1 <0>        -0.1060
     21 C15        -6.0964   -2.1580    5.7800 C.ar      1 <0>        -0.0698
     22 C16        -5.1033   -1.3412    5.2763 C.ar      1 <0>        -0.1176
     23 Br1        -8.5887   -2.7243    7.0331 Br        1 <0>        -0.0479
     24 H1         -1.2413    4.4997    3.5735 H         1 <0>         0.1448
     25 H2         -2.8906    2.9756    4.5772 H         1 <0>         0.1363
     26 H3         -2.0063    0.0616    1.5570 H         1 <0>         0.1551
     27 H4          0.0262    3.8091    1.5817 H         1 <0>         0.1471
     28 H5         -1.4357    1.1398   -1.8884 H         1 <0>         0.4310
     29 H6         -0.5432    3.5939   -0.6558 H         1 <0>         0.1127
     30 H7         -3.1310    2.8760   -2.1723 H         1 <0>         0.1078
     31 H8         -2.8650    4.5725   -1.6454 H         1 <0>         0.1092
     32 H9         -0.5057    4.6670   -3.1406 H         1 <0>         0.1126
     33 H10        -0.7716    2.9705   -3.6675 H         1 <0>         0.1119
     34 H11        -4.0149    1.8263    5.3200 H         1 <0>         0.4347
     35 H12        -6.4918    1.6672    5.9611 H         1 <0>         0.1356
     36 H13        -8.2613    0.2033    6.8458 H         1 <0>         0.1381
     37 H14        -5.9875   -3.2315    5.7331 H         1 <0>         0.1376
     38 H15        -4.2181   -1.7754    4.8356 H         1 <0>         0.1481
@<TRIPOS>BOND
     1    1    6 ar
     2    1    2 ar
     3    1   24 1
     4    2    3 ar
     5    2   25 1
     6    3    4 ar
     7    3   14 1
     8    4    5 ar
     9    4   26 1
    10    5    6 ar
    11    5    7 1
    12    6   27 1
    13    7    8 2
    14    7    9 2
    15    7   10 1
    16   10   11 1
    17   10   28 1
    18   11   13 1
    19   11   12 1
    20   11   29 1
    21   12   13 1
    22   12   30 1
    23   12   31 1
    24   13   32 1
    25   13   33 1
    26   14   15 2
    27   14   16 am
    28   16   17 1
    29   16   34 1
    30   17   22 ar
    31   17   18 ar
    32   18   19 ar
    33   18   35 1
    34   19   20 ar
    35   19   36 1
    36   20   21 ar
    37   20   23 1
    38   21   22 ar
    39   21   37 1
    40   22   38 1
@<TRIPOS>MOLECULE
ZINC22005076
   41    43     0     0     0
SMALL
USER_CHARGES

@<TRIPOS>ATOM
      1 C1          0.0614    1.5009    0.0051 C.3       1 <0>        -0.1057
      2 C2          0.0694   -0.0061   -0.0024 C.2       1 <0>        -0.0628
      3 C3          0.0669   -0.6796   -1.1639 C.2       1 <0>        -0.1627
      4 S1          0.0792   -2.3870   -0.6510 S.3       1 <0>         0.1543
      5 C4          0.0874   -2.1460    1.1068 C.2       1 <0>         0.1032
      6 C5          0.0859   -0.7463    1.2454 C.2       1 <0>        -0.2418
      7 C6          0.0960   -0.2574    2.5925 C.2       1 <0>         0.5598
      8 O1          0.0910    0.9408    2.8163 O.2       1 <0>        -0.5172
      9 N1          0.1106   -1.1422    3.6067 N.am      1 <0>        -0.6310
     10 C7          0.1164   -2.4803    3.3764 C.2       1 <0>         0.4192
     11 N2          0.0973   -2.9571    2.1605 N.2       1 <0>        -0.4644
     12 C8          0.1334   -3.4323    4.5446 C.3       1 <0>        -0.0867
     13 S2          0.1377   -5.1400    3.9329 S.3       1 <0>        -0.0658
     14 C9          0.1583   -6.1466    5.4418 C.3       1 <0>        -0.1602
     15 C10         0.1634   -7.6073    5.0712 C.2       1 <0>         0.5369
     16 O2          0.1541   -7.9369    3.9040 O.2       1 <0>        -0.4884
     17 N3          0.1784   -8.5475    6.0368 N.am      1 <0>        -0.6669
     18 C11         0.0889   -9.9028    5.6959 C.ar      1 <0>         0.1443
     19 C12         0.6760  -10.3659    4.5266 C.ar      1 <0>        -0.1331
     20 C13         0.5864  -11.7054    4.1928 C.ar      1 <0>         0.1145
     21 C14        -0.0884  -12.5839    5.0240 C.ar      1 <0>        -0.1378
     22 C15        -0.6745  -12.1253    6.1892 C.ar      1 <0>        -0.1033
     23 C16        -0.5833  -10.7883    6.5310 C.ar      1 <0>         0.0636
     24 F1         -1.1515  -10.3420    7.6726 F         1 <0>        -0.1318
     25 F2          1.1572  -12.1570    3.0546 F         1 <0>        -0.1279
     26 C17         0.0557   -0.1252   -2.5651 C.3       1 <0>        -0.0688
     27 H1          1.0871    1.8697   -0.0035 H         1 <0>         0.0724
     28 H2         -0.4633    1.8659   -0.8778 H         1 <0>         0.0684
     29 H3         -0.4453    1.8571    0.9020 H         1 <0>         0.0820
     30 H4          1.0282   -3.2582    5.1422 H         1 <0>         0.1238
     31 H5         -0.7517   -3.2688    5.1594 H         1 <0>         0.1237
     32 H6          1.0525   -5.9155    6.0206 H         1 <0>         0.1192
     33 H7         -0.7273   -5.9261    6.0378 H         1 <0>         0.1194
     34 H8          0.2511   -8.2854    6.9679 H         1 <0>         0.4189
     35 H9          1.2020   -9.6811    3.8779 H         1 <0>         0.1635
     36 H10        -0.1571  -13.6293    4.7614 H         1 <0>         0.1499
     37 H11        -1.2006  -12.8126    6.8351 H         1 <0>         0.1528
     38 H12         1.0806    0.0146   -2.9087 H         1 <0>         0.0824
     39 H13        -0.4577   -0.8221   -3.2275 H         1 <0>         0.0771
     40 H14        -0.4639    0.8330   -2.5727 H         1 <0>         0.0855
     41 H15         0.1175   -0.8173    4.5206 H         1 <0>         0.4215
@<TRIPOS>BOND
     1    1    2 1
     2    1   27 1
     3    1   28 1
     4    1   29 1
     5    2    6 1
     6    2    3 2
     7    3    4 1
     8    3   26 1
     9    4    5 1
    10    5   11 1
    11    5    6 2
    12    6    7 1
    13    7    8 2
    14    7    9 am
    15    9   10 1
    16    9   41 1
    17   10   11 2
    18   10   12 1
    19   12   13 1
    20   12   30 1
    21   12   31 1
    22   13   14 1
    23   14   15 1
    24   14   32 1
    25   14   33 1
    26   15   16 2
    27   15   17 am
    28   17   18 1
    29   17   34 1
    30   18   23 ar
    31   18   19 ar
    32   19   20 ar
    33   19   35 1
    34   20   21 ar
    35   20   25 1
    36   21   22 ar
    37   21   36 1
    38   22   23 ar
    39   22   37 1
    40   23   24 1
    41   26   38 1
    42   26   39 1
    43   26   40 1
@<TRIPOS>MOLECULE
ZINC57731104
   47    49     0     0     0
SMALL
USER_CHARGES

@<TRIPOS>ATOM
      1 C1         -0.4793    1.3947    0.0480 C.3       1 <0>         0.0836
      2 N1         -0.2564   -0.0530    0.0272 N.am      1 <0>        -0.6274
      3 C2         -0.0731   -0.7841    1.2835 C.3       1 <0>         0.0778
      4 C3         -0.2198   -0.7125   -1.1477 C.2       1 <0>         0.5110
      5 O1         -0.3715   -0.1073   -2.1877 O.2       1 <0>        -0.5249
      6 C4          0.0096   -2.2018   -1.1690 C.3       1 <0>        -0.0962
      7 C5          0.0057   -2.6902   -2.5947 C.ar      1 <0>        -0.0870
      8 C6         -1.1795   -3.0916   -3.1832 C.ar      1 <0>        -0.0833
      9 C7         -1.1864   -3.5397   -4.4896 C.ar      1 <0>        -0.1175
     10 C8         -0.0014   -3.5870   -5.2121 C.ar      1 <0>         0.1671
     11 C9          1.1871   -3.1833   -4.6182 C.ar      1 <0>        -0.1459
     12 C10         1.1864   -2.7308   -3.3133 C.ar      1 <0>        -0.0833
     13 N2         -0.0049   -4.0411   -6.5359 N.am      1 <0>        -0.6861
     14 C11        -1.0713   -3.8064   -7.3259 C.2       1 <0>         0.7036
     15 O2         -1.9883   -3.1183   -6.9210 O.2       1 <0>        -0.5676
     16 N3         -1.1213   -4.3346   -8.5649 N.am      1 <0>        -0.7373
     17 C12        -2.2805   -4.0795   -9.4237 C.3       1 <0>         0.1946
     18 C13        -2.0897   -4.7778  -10.7455 C.2       1 <0>        -0.1327
     19 C14        -1.6635   -4.0942  -11.8171 C.2       1 <0>        -0.1255
     20 S1         -1.5986   -5.3294  -13.1008 S.3       1 <0>         0.0407
     21 C15        -2.1463   -6.7314  -12.1617 C.ar      1 <0>        -0.1148
     22 C16        -2.3606   -6.2025  -10.8701 C.ar      1 <0>        -0.0821
     23 C17        -2.8082   -7.1089   -9.8804 C.ar      1 <0>        -0.0739
     24 C18        -3.0102   -8.4200  -10.1790 C.ar      1 <0>        -0.1194
     25 C19        -2.7873   -8.9161  -11.4562 C.ar      1 <0>        -0.0930
     26 C20        -2.3593   -8.0614  -12.4530 C.ar      1 <0>        -0.0770
     27 H1          0.4794    1.9108   -0.0034 H         1 <0>         0.0543
     28 H2         -1.0920    1.6803   -0.8072 H         1 <0>         0.0766
     29 H3         -0.9913    1.6703    0.9699 H         1 <0>         0.0698
     30 H4         -0.1341   -0.0887    2.1207 H         1 <0>         0.0789
     31 H5         -0.8527   -1.5396    1.3812 H         1 <0>         0.0630
     32 H6          0.9037   -1.2677    1.2833 H         1 <0>         0.0629
     33 H7          0.9721   -2.4278   -0.7101 H         1 <0>         0.1024
     34 H8         -0.7842   -2.6996   -0.6122 H         1 <0>         0.1025
     35 H9         -2.1006   -3.0549   -2.6207 H         1 <0>         0.1224
     36 H10        -2.1123   -3.8534   -4.9486 H         1 <0>         0.1355
     37 H11         2.1104   -3.2192   -5.1774 H         1 <0>         0.1249
     38 H12         2.1097   -2.4125   -2.8522 H         1 <0>         0.1233
     39 H13         0.7601   -4.5246   -6.8848 H         1 <0>         0.4065
     40 H14        -0.3898   -4.8836   -8.8880 H         1 <0>         0.3990
     41 H15        -3.1812   -4.4573   -8.9399 H         1 <0>         0.0788
     42 H16        -2.3802   -3.0070   -9.5904 H         1 <0>         0.0807
     43 H17        -1.4183   -3.0446  -11.8864 H         1 <0>         0.1932
     44 H18        -2.9912   -6.7556   -8.8763 H         1 <0>         0.1246
     45 H19        -3.3515   -9.0909   -9.4046 H         1 <0>         0.1285
     46 H20        -2.9541   -9.9614  -11.6705 H         1 <0>         0.1358
     47 H21        -2.1817   -8.4349  -13.4507 H         1 <0>         0.1327
@<TRIPOS>BOND
     1    1    2 1
     2    1   27 1
     3    1   28 1
     4    1   29 1
     5    2    3 1
     6    2    4 am
     7    3   30 1
     8    3   31 1
     9    3   32 1
    10    4    5 2
    11    4    6 1
    12    6    7 1
    13    6   33 1
    14    6   34 1
    15    7   12 ar
    16    7    8 ar
    17    8    9 ar
    18    8   35 1
    19    9   10 ar
    20    9   36 1
    21   10   11 ar
    22   10   13 1
    23   11   12 ar
    24   11   37 1
    25   12   38 1
    26   13   14 am
    27   13   39 1
    28   14   15 2
    29   14   16 am
    30   16   17 1
    31   16   40 1
    32   17   18 1
    33   17   41 1
    34   17   42 1
    35   18   22 1
    36   18   19 2
    37   19   20 1
    38   19   43 1
    39   20   21 1
    40   21   26 ar
    41   21   22 ar
    42   22   23 ar
    43   23   24 ar
    44   23   44 1
    45   24   25 ar
    46   24   45 1
    47   25   26 ar
    48   25   46 1
    49   26   47 1
@<TRIPOS>MOLECULE
ZINC66207846
   42    43     0     0     0
SMALL
USER_CHARGES

@<TRIPOS>ATOM
      1 C1          0.6879   -1.5779    1.1723 C.3       1 <0>        -0.1315
      2 S1          0.0379   -0.2802    0.0840 S.3       1 <0>        -0.0723
      3 C2          0.8629   -0.5562   -1.4483 C.ar      1 <0>         0.1083
      4 C3          0.6013    0.2788   -2.5309 C.ar      1 <0>        -0.1271
      5 C4          1.2539    0.0541   -3.7280 C.ar      1 <0>        -0.0575
      6 C5          2.1552   -1.0081   -3.8045 C.ar      1 <0>         0.0821
      7 C6          2.3656   -1.7987   -2.6844 C.ar      1 <0>         0.1040
      8 N1          1.7288   -1.5524   -1.5555 N.ar      1 <0>        -0.4708
      9 N2          2.8381   -1.2729   -4.9967 N.am      1 <0>        -0.6370
     10 C7          3.1799   -0.2596   -5.8169 C.2       1 <0>         0.5088
     11 O1          2.9815    0.8890   -5.4779 O.2       1 <0>        -0.4960
     12 C8          3.8028   -0.5498   -7.1426 C.2       1 <0>         0.5148
     13 O2          4.0012   -1.6981   -7.4815 O.2       1 <0>        -0.5098
     14 N3          4.1447    0.4636   -7.9628 N.am      1 <0>        -0.6938
     15 C9          4.7558    0.1789   -9.2634 C.3       1 <0>         0.1497
     16 H1          5.3984   -0.6975   -9.1790 H         1 <0>         0.1001
     17 C10         3.6581   -0.0910  -10.2946 C.3       1 <0>        -0.1354
     18 C11         4.2964   -0.3883  -11.6529 C.3       1 <0>        -0.1115
     19 C12         5.1303    0.8145  -12.0988 C.3       1 <0>        -0.1235
     20 C13         6.2280    1.0844  -11.0677 C.3       1 <0>        -0.1271
     21 H2          6.8705    0.2080  -10.9832 H         1 <0>         0.1201
     22 C14         5.5897    1.3817   -9.7093 C.3       1 <0>        -0.1305
     23 C15         7.0619    2.2872  -11.5135 C.3       1 <0>         0.4550
     24 F1          6.2372    3.4120  -11.6220 F         1 <0>        -0.1808
     25 F2          8.0656    2.5340  -10.5707 F         1 <0>        -0.1823
     26 F3          7.6455    2.0153  -12.7556 F         1 <0>        -0.1807
     27 H3          0.4551   -2.5558    0.7509 H         1 <0>         0.0876
     28 H4          1.7687   -1.4690    1.2623 H         1 <0>         0.0875
     29 H5          0.2304   -1.4886    2.1576 H         1 <0>         0.1060
     30 H6         -0.1031    1.0920   -2.4365 H         1 <0>         0.1470
     31 H7          1.0703    0.6858   -4.5846 H         1 <0>         0.1519
     32 H8          3.0617   -2.6229   -2.7358 H         1 <0>         0.1646
     33 H9          3.0655   -2.1859   -5.2329 H         1 <0>         0.4267
     34 H10         3.9861    1.3814   -7.6919 H         1 <0>         0.4154
     35 H11         3.0640   -0.9479   -9.9769 H         1 <0>         0.0759
     36 H12         3.0156    0.7854  -10.3790 H         1 <0>         0.0723
     37 H13         4.9389   -1.2647  -11.5684 H         1 <0>         0.0720
     38 H14         3.5144   -0.5806  -12.3875 H         1 <0>         0.0792
     39 H15         5.5850    0.6027  -13.0665 H         1 <0>         0.0825
     40 H16         4.4877    1.6909  -12.1833 H         1 <0>         0.0803
     41 H17         4.9472    2.2581   -9.7938 H         1 <0>         0.0878
     42 H18         6.3717    1.5740   -8.9747 H         1 <0>         0.0878
@<TRIPOS>BOND
     1    1    2 1
     2    1   27 1
     3    1   28 1
     4    1   29 1
     5    2    3 1
     6    3    8 ar
     7    3    4 ar
     8    4    5 ar
     9    4   30 1
    10    5    6 ar
    11    5   31 1
    12    6    7 ar
    13    6    9 1
    14    7    8 ar
    15    7   32 1
    16    9   10 am
    17    9   33 1
    18   10   11 2
    19   10   12 1
    20   12   13 2
    21   12   14 am
    22   14   15 1
    23   14   34 1
    24   15   16 1
    25   15   22 1
    26   15   17 1
    27   17   18 1
    28   17   35 1
    29   17   36 1
    30   18   19 1
    31   18   37 1
    32   18   38 1
    33   19   20 1
    34   19   39 1
    35   19   40 1
    36   20   21 1
    37   20   22 1
    38   20   23 1
    39   22   41 1
    40   22   42 1
    41   23   24 1
    42   23   25 1
    43   23   26 1
@<TRIPOS>MOLECULE
ZINC13053432
   52    56     0     0     0
SMALL
USER_CHARGES
2-[[3-(4-chlorophenyl)-1,2,4-oxadiazol-5-yl]methylsulfanyl]-4-oxo-3-[[(2R)-tetrahydrofuran-2-yl]methyl]quinazoline-7-carboxylic acid
@<TRIPOS>ATOM
      1 C1         -6.8891   -4.2342    0.9982 C.ar      1 <0>        -0.0603
      2 C2         -7.7820   -4.9326    1.7850 C.ar      1 <0>        -0.1121
      3 C3         -7.7704   -6.3170    1.7873 C.ar      1 <0>        -0.0175
      4 C4         -6.8670   -7.0075    0.9975 C.ar      1 <0>        -0.1123
      5 C5         -5.9734   -6.3181    0.2036 C.ar      1 <0>        -0.0701
      6 C6         -5.9815   -4.9247    0.1975 C.ar      1 <0>        -0.0176
      7 C7         -5.0225   -4.1784   -0.6545 C.2       1 <0>         0.2109
      8 N1         -4.9188   -2.8342   -0.7586 N.2       1 <0>        -0.4512
      9 C8         -3.9505   -2.6213   -1.6144 C.2       1 <0>         0.1993
     10 O1         -3.5014   -3.8178   -2.0062 O.3       1 <0>         0.0981
     11 N2         -4.1198   -4.6977   -1.4454 N.2       1 <0>        -0.3650
     12 C9         -3.4425   -1.2796   -2.0756 C.3       1 <0>        -0.0233
     13 S1         -2.1106   -0.7297   -0.9802 S.3       1 <0>         0.0156
     14 C10        -1.7164    0.8155   -1.7297 C.2       1 <0>         0.3488
     15 N3         -2.3958    1.1888   -2.7860 N.2       1 <0>        -0.5080
     16 C11        -2.1416    2.3606   -3.4145 C.ar      1 <0>         0.1338
     17 C12        -2.8634    2.7538   -4.5450 C.ar      1 <0>        -0.0695
     18 C13        -2.5669    3.9652   -5.1570 C.ar      1 <0>        -0.0688
     19 C14        -1.5536    4.7887   -4.6492 C.ar      1 <0>        -0.0836
     20 C15        -0.8424    4.4151   -3.5452 C.ar      1 <0>        -0.0639
     21 C16        -1.1232    3.2033   -2.9150 C.ar      1 <0>        -0.1878
     22 C17        -0.3806    2.7618   -1.7236 C.2       1 <0>         0.5628
     23 O2          0.5074    3.4431   -1.2456 O.2       1 <0>        -0.4961
     24 N4         -0.7213    1.5711   -1.1789 N.am      1 <0>        -0.5252
     25 C18        -0.0127    1.0858    0.0080 C.3       1 <0>         0.0938
     26 C19        -0.7288    1.5792    1.2668 C.3       1 <0>         0.0630
     27 H1         -1.7503    1.1998    1.2935 H         1 <0>         0.0808
     28 C20         0.0448    1.1365    2.5342 C.3       1 <0>        -0.1472
     29 C21        -0.4177    2.2134    3.5532 C.3       1 <0>        -0.1534
     30 C22        -0.5715    3.4639    2.6610 C.3       1 <0>         0.0502
     31 O3         -0.7290    3.0150    1.3099 O.3       1 <0>        -0.3614
     32 C23        -3.3263    4.3885   -6.3541 C.2       1 <0>         0.4879
     33 O4         -4.2053    3.6779   -6.7983 O.co2     1 <0>        -0.6215
     34 Cl1        -8.8918   -7.1900    2.7844 Cl        1 <0>        -0.0623
     35 H2         -6.8959   -3.1542    1.0004 H         1 <0>         0.1480
     36 H3         -8.4881   -4.3983    2.4034 H         1 <0>         0.1434
     37 H4         -6.8615   -8.0875    1.0029 H         1 <0>         0.1423
     38 H5         -5.2685   -6.8576   -0.4116 H         1 <0>         0.1414
     39 H6         -4.2562   -0.5548   -2.0505 H         1 <0>         0.1512
     40 H7         -3.0633   -1.3652   -3.0940 H         1 <0>         0.1445
     41 H8         -3.6452    2.1215   -4.9392 H         1 <0>         0.1452
     42 H9         -1.3333    5.7277   -5.1351 H         1 <0>         0.1432
     43 H10        -0.0634    5.0569   -3.1610 H         1 <0>         0.1340
     44 H11         0.0021   -0.0041    0.0020 H         1 <0>         0.1050
     45 H12         1.0099    1.4631    0.0003 H         1 <0>         0.1101
     46 H13        -0.2592    0.1390    2.8516 H         1 <0>         0.0878
     47 H14         1.1219    1.1843    2.3737 H         1 <0>         0.0835
     48 H15         0.3412    2.3741    4.3189 H         1 <0>         0.0829
     49 H16        -1.3709    1.9399    4.0055 H         1 <0>         0.0775
     50 H17         0.3187    4.0877    2.7420 H         1 <0>         0.0697
     51 H18        -1.4508    4.0307    2.9672 H         1 <0>         0.0671
     52 O5         -3.0429    5.5620   -6.9513 O.co2     1 <0>        -0.7439
@<TRIPOS>BOND
     1    1    6 ar
     2    1    2 ar
     3    1   35 1
     4    2    3 ar
     5    2   36 1
     6    3    4 ar
     7    3   34 1
     8    4    5 ar
     9    4   37 1
    10    5    6 ar
    11    5   38 1
    12    6    7 1
    13    7   11 2
    14    7    8 1
    15    8    9 2
    16    9   10 1
    17    9   12 1
    18   10   11 1
    19   12   13 1
    20   12   39 1
    21   12   40 1
    22   13   14 1
    23   14   24 1
    24   14   15 2
    25   15   16 1
    26   16   21 ar
    27   16   17 ar
    28   17   18 ar
    29   17   41 1
    30   18   19 ar
    31   18   32 1
    32   19   20 ar
    33   19   42 1
    34   20   21 ar
    35   20   43 1
    36   21   22 1
    37   22   23 2
    38   22   24 am
    39   24   25 1
    40   25   26 1
    41   25   44 1
    42   25   45 1
    43   26   27 1
    44   26   31 1
    45   26   28 1
    46   28   29 1
    47   28   46 1
    48   28   47 1
    49   29   30 1
    50   29   48 1
    51   29   49 1
    52   30   31 1
    53   30   50 1
    54   30   51 1
    55   32   33 2
    56   32   52 1
@<TRIPOS>MOLECULE
ZINC13280439
   57    61     0     0     0
SMALL
USER_CHARGES
2-[(1S)-2-(3,4-dihydro-2H-quinolin-1-yl)-1-methyl-2-oxo-ethyl]sulfanyl-3-(2-furylmethyl)-4-oxo-quinazoline-7-carboxylic acid
@<TRIPOS>ATOM
      1 C1          4.9170    0.1493   -1.3894 C.3       1 <0>        -0.1488
      2 C2          5.0404    0.9097   -0.0675 C.3       1 <0>        -0.1090
      3 H1          4.8298    0.2339    0.7615 H         1 <0>         0.1329
      4 C3          6.4391    1.4534    0.0706 C.2       1 <0>         0.5406
      5 O1          6.6837    2.5914   -0.2702 O.2       1 <0>        -0.5030
      6 N1          7.4182    0.6751    0.5728 N.am      1 <0>        -0.5422
      7 C4          7.1537   -0.7285    0.9177 C.3       1 <0>         0.0911
      8 C5          7.7930   -1.0091    2.2796 C.3       1 <0>        -0.1372
      9 C6          9.3066   -0.8301    2.1644 C.3       1 <0>        -0.0791
     10 C7          9.6342    0.5007    1.5401 C.ar      1 <0>        -0.1130
     11 C8          8.7042    1.1927    0.7802 C.ar      1 <0>         0.1542
     12 C9          9.0411    2.4163    0.2134 C.ar      1 <0>        -0.1572
     13 C10        10.3018    2.9447    0.4085 C.ar      1 <0>        -0.1048
     14 C11        11.2282    2.2551    1.1687 C.ar      1 <0>        -0.1399
     15 C12        10.8957    1.0383    1.7323 C.ar      1 <0>        -0.1021
     16 S1          3.8562    2.2783   -0.0459 S.3       1 <0>         0.0499
     17 C13         2.3437    1.3746   -0.0671 C.2       1 <0>         0.3427
     18 N2          2.3984    0.0658   -0.0910 N.2       1 <0>        -0.5065
     19 C14         1.2755   -0.6903   -0.1087 C.ar      1 <0>         0.1358
     20 C15         1.3363   -2.0865   -0.1337 C.ar      1 <0>        -0.0720
     21 C16         0.1573   -2.8210   -0.1507 C.ar      1 <0>        -0.0660
     22 C17        -1.0843   -2.1720   -0.1426 C.ar      1 <0>        -0.0854
     23 C18        -1.1559   -0.8088   -0.1187 C.ar      1 <0>        -0.0623
     24 C19         0.0150   -0.0517   -0.1012 C.ar      1 <0>        -0.1922
     25 C20        -0.0165    1.4193   -0.0743 C.2       1 <0>         0.5578
     26 O2         -1.0706    2.0277   -0.0717 O.2       1 <0>        -0.5050
     27 N3          1.1691    2.0710   -0.0583 N.am      1 <0>        -0.5283
     28 C21         1.1929    3.5356   -0.0318 C.3       1 <0>         0.1741
     29 C22         1.1960    4.0121    1.3979 C.2       1 <0>        -0.0456
     30 C23         2.2884    4.2379    2.1495 C.2       1 <0>        -0.1773
     31 C24         1.8322    4.6729    3.4150 C.2       1 <0>        -0.2184
     32 C25         0.4880    4.6789    3.3637 C.2       1 <0>        -0.0282
     33 O3          0.1083    4.2778    2.1396 O.3       1 <0>        -0.1622
     34 C26         0.2132   -4.2992   -0.1772 C.2       1 <0>         0.4881
     35 O4          1.2871   -4.8662   -0.1840 O.co2     1 <0>        -0.6214
     36 H2          5.6302   -0.6750   -1.4024 H         1 <0>         0.0720
     37 H3          3.9054   -0.2440   -1.4892 H         1 <0>         0.1030
     38 H4          5.1276    0.8250   -2.2183 H         1 <0>         0.0699
     39 H5          6.0785   -0.8987    0.9732 H         1 <0>         0.1025
     40 H6          7.5934   -1.3828    0.1650 H         1 <0>         0.0858
     41 H7          7.5684   -2.0308    2.5857 H         1 <0>         0.0920
     42 H8          7.3979   -0.3115    3.0181 H         1 <0>         0.0740
     43 H9          9.7172   -1.6283    1.5461 H         1 <0>         0.0796
     44 H10         9.7515   -0.8805    3.1582 H         1 <0>         0.0810
     45 H11         8.3165    2.9539   -0.3802 H         1 <0>         0.1759
     46 H12        10.5639    3.8951   -0.0323 H         1 <0>         0.1235
     47 H13        12.2141    2.6684    1.3219 H         1 <0>         0.1199
     48 H14        11.6231    0.5038    2.3253 H         1 <0>         0.1236
     49 H15         2.2917   -2.5901   -0.1393 H         1 <0>         0.1450
     50 H16        -1.9931   -2.7554   -0.1557 H         1 <0>         0.1436
     51 H17        -2.1178   -0.3177   -0.1126 H         1 <0>         0.1342
     52 H18         2.0905    3.8935   -0.5360 H         1 <0>         0.1259
     53 H19         0.3108    3.9226   -0.5419 H         1 <0>         0.1210
     54 H20         3.3168    4.1132    1.8440 H         1 <0>         0.1564
     55 H21         2.4452    4.9440    4.2618 H         1 <0>         0.1504
     56 H22        -0.1735    4.9592    4.1701 H         1 <0>         0.2035
     57 O5         -0.9269   -5.0160   -0.1939 O.co2     1 <0>        -0.7429
@<TRIPOS>BOND
     1    1    2 1
     2    1   36 1
     3    1   37 1
     4    1   38 1
     5    2    3 1
     6    2    4 1
     7    2   16 1
     8    4    5 2
     9    4    6 am
    10    6   11 1
    11    6    7 1
    12    7    8 1
    13    7   39 1
    14    7   40 1
    15    8    9 1
    16    8   41 1
    17    8   42 1
    18    9   10 1
    19    9   43 1
    20    9   44 1
    21   10   15 ar
    22   10   11 ar
    23   11   12 ar
    24   12   13 ar
    25   12   45 1
    26   13   14 ar
    27   13   46 1
    28   14   15 ar
    29   14   47 1
    30   15   48 1
    31   16   17 1
    32   17   27 1
    33   17   18 2
    34   18   19 1
    35   19   24 ar
    36   19   20 ar
    37   20   21 ar
    38   20   49 1
    39   21   22 ar
    40   21   34 1
    41   22   23 ar
    42   22   50 1
    43   23   24 ar
    44   23   51 1
    45   24   25 1
    46   25   26 2
    47   25   27 am
    48   27   28 1
    49   28   29 1
    50   28   52 1
    51   28   53 1
    52   29   33 1
    53   29   30 2
    54   30   31 1
    55   30   54 1
    56   31   32 2
    57   31   55 1
    58   32   33 1
    59   32   56 1
    60   34   35 2
    61   34   57 1
@<TRIPOS>MOLECULE
ZINC28118619
   46    49     0     0     0
SMALL
USER_CHARGES
methyl 5-[(2-chloro-5-nitro-phenyl)sulfonylamino]-2-methyl-benzo[g]benzofuran-3-carboxylate
@<TRIPOS>ATOM
      1 C1         -5.3061   -3.2076    3.8439 C.3       1 <0>        -0.0822
      2 C2         -4.4952   -1.9955    3.4644 C.2       1 <0>         0.0831
      3 C3         -3.3236   -2.0205    2.7692 C.2       1 <0>        -0.2295
      4 C4         -2.9058   -0.6099    2.6392 C.ar      1 <0>        -0.0130
      5 C5         -1.8061    0.0221    2.0406 C.ar      1 <0>        -0.2639
      6 C6         -1.6793    1.3788    2.0773 C.ar      1 <0>         0.2829
      7 C7         -2.6596    2.1637    2.7293 C.ar      1 <0>        -0.0471
      8 C8         -2.5497    3.5617    2.7750 C.ar      1 <0>        -0.0494
      9 C9         -3.5105    4.2953    3.4033 C.ar      1 <0>        -0.1535
     10 C10        -4.6065    3.6781    4.0004 C.ar      1 <0>        -0.1057
     11 C11        -4.7470    2.3233    3.9716 C.ar      1 <0>        -0.1285
     12 C12        -3.7760    1.5370    3.3324 C.ar      1 <0>         0.0178
     13 C13        -3.8930    0.1308    3.2848 C.ar      1 <0>        -0.0310
     14 O1         -4.8151   -0.7313    3.7587 O.3       1 <0>        -0.1670
     15 N1         -0.5791    1.9936    1.4765 N.2       1 <0>        -1.0193
     16 S1          0.0509    1.3768    0.0748 S.o2      1 <0>         2.5784
     17 O2          1.0977    2.2529   -0.3201 O.2       1 <0>        -0.9672
     18 O3         -1.0524    1.0788   -0.7698 O.2       1 <0>        -1.0118
     19 C14         0.8075   -0.1628    0.4769 C.ar      1 <0>        -0.6562
     20 C15         0.3852   -1.3236   -0.1438 C.ar      1 <0>         0.0410
     21 C16         0.9790   -2.5314    0.1711 C.ar      1 <0>        -0.0700
     22 C17         1.9955   -2.5794    1.1071 C.ar      1 <0>        -0.0119
     23 C18         2.4181   -1.4197    1.7286 C.ar      1 <0>        -0.1330
     24 C19         1.8280   -0.2095    1.4095 C.ar      1 <0>         0.0971
     25 Cl1         2.3636    1.2488    2.1843 Cl        1 <0>        -0.0019
     26 N2          0.5268   -3.7737   -0.4942 N.pl3     1 <0>         0.0356
     27 O4         -0.3684   -3.7317   -1.3190 O.2       1 <0>        -0.1519
     28 O5          1.0498   -4.8382   -0.2168 O.3       1 <0>        -0.1661
     29 C20        -2.6220   -3.2048    2.2549 C.2       1 <0>         0.5477
     30 O6         -1.7966   -3.7700    2.9456 O.2       1 <0>        -0.5006
     31 O7         -2.8937   -3.6646    1.0171 O.3       1 <0>        -0.3437
     32 C21        -2.1628   -4.8387    0.5748 C.3       1 <0>         0.0349
     33 H1         -4.8060   -4.1143    3.4726 H         1 <0>         0.0858
     34 H2         -6.3085   -3.1327    3.3972 H         1 <0>         0.0915
     35 H3         -5.3957   -3.2606    4.9390 H         1 <0>         0.0894
     36 H4         -1.0524   -0.5721    1.5453 H         1 <0>         0.1046
     37 H5         -1.7049    4.0542    2.3165 H         1 <0>         0.1421
     38 H6         -3.4206    5.3710    3.4390 H         1 <0>         0.1179
     39 H7         -5.3548    4.2811    4.4931 H         1 <0>         0.1164
     40 H8         -5.6016    1.8566    4.4387 H         1 <0>         0.1213
     41 H9         -0.4085   -1.2867   -0.8753 H         1 <0>         0.1722
     42 H10         2.4591   -3.5234    1.3528 H         1 <0>         0.1620
     43 H11         3.2122   -1.4573    2.4597 H         1 <0>         0.1598
     44 H12        -2.4789   -5.1048   -0.4446 H         1 <0>         0.1131
     45 H13        -2.3716   -5.6781    1.2543 H         1 <0>         0.0625
     46 H14        -1.0843   -4.6225    0.5797 H         1 <0>         0.0473
@<TRIPOS>BOND
     1    1    2 1
     2    1   33 1
     3    1   34 1
     4    1   35 1
     5    2   14 1
     6    2    3 2
     7    3    4 1
     8    3   29 1
     9    4   13 ar
    10    4    5 ar
    11    5    6 ar
    12    5   36 1
    13    6    7 ar
    14    6   15 1
    15    7   12 ar
    16    7    8 ar
    17    8    9 ar
    18    8   37 1
    19    9   10 ar
    20    9   38 1
    21   10   11 ar
    22   10   39 1
    23   11   12 ar
    24   11   40 1
    25   12   13 ar
    26   13   14 1
    27   15   16 1
    28   16   17 2
    29   16   18 2
    30   16   19 1
    31   19   24 ar
    32   19   20 ar
    33   20   21 ar
    34   20   41 1
    35   21   22 ar
    36   21   26 1
    37   22   23 ar
    38   22   42 1
    39   23   24 ar
    40   23   43 1
    41   24   25 1
    42   26   27 2
    43   26   28 1
    44   29   30 2
    45   29   31 1
    46   31   32 1
    47   32   44 1
    48   32   45 1
    49   32   46 1
@<TRIPOS>MOLECULE
ZINC18042956
   59    62     0     0     0
SMALL
USER_CHARGES

@<TRIPOS>ATOM
      1 C1         -0.0187    1.5258    0.0104 C.3       1 <0>        -0.1527
      2 C2          0.0021   -0.0041    0.0020 C.3       1 <0>        -0.1159
      3 C3          0.7421   -0.5109    1.2415 C.3       1 <0>        -0.0740
      4 C4          0.7625   -2.0177    1.2333 C.2       1 <0>         0.1960
      5 C5          1.8414   -2.6816    0.7246 C.2       1 <0>        -0.2942
      6 C6          1.8382   -4.0875    0.7279 C.2       1 <0>         0.5301
      7 O1          2.7862   -4.7124    0.2814 O.2       1 <0>        -0.5327
      8 N1          0.7661   -4.7330    1.2350 N.am      1 <0>        -0.6144
      9 H1          0.7428   -5.7026    1.2476 H         1 <0>         0.4216
     10 C7         -0.2821   -4.0176    1.7291 C.2       1 <0>         0.3576
     11 N2         -0.2686   -2.6985    1.7267 N.2       1 <0>        -0.5453
     12 S1         -1.6772   -4.8684    2.3884 S.3       1 <0>         0.0779
     13 C8         -2.7937   -3.5389    2.9142 C.3       1 <0>        -0.1429
     14 C9         -4.0443   -4.1374    3.5050 C.2       1 <0>         0.5370
     15 O2         -4.1699   -5.3422    3.5654 O.2       1 <0>        -0.5187
     16 N3         -5.0230   -3.3338    3.9662 N.am      1 <0>        -0.6030
     17 C10        -4.8871   -1.8722    3.8939 C.3       1 <0>         0.0896
     18 C11        -6.0988   -1.3038    3.1449 C.3       1 <0>         0.1015
     19 N4         -7.3213   -1.8734    3.7287 N.pl3     1 <0>        -0.9983
     20 C12        -7.4572   -3.3350    3.8011 C.3       1 <0>         0.1022
     21 C13        -6.2480   -3.9034    4.5449 C.3       1 <0>         0.1007
     22 S2         -8.5239   -0.8861    4.2955 S.o2      1 <0>         2.6888
     23 O3         -9.2511   -1.6412    5.2547 O.2       1 <0>        -0.9496
     24 O4         -7.9136    0.3583    4.6092 O.2       1 <0>        -0.9477
     25 C14        -9.6247   -0.5829    2.9535 C.ar      1 <0>        -0.6743
     26 C15        -9.3990    0.5057    2.1129 C.ar      1 <0>        -0.0464
     27 C16       -10.2302    0.7682    1.0678 C.ar      1 <0>        -0.1152
     28 C17       -11.3334   -0.0692    0.8294 C.ar      1 <0>        -0.0121
     29 C18       -12.2134    0.1696   -0.2401 C.ar      1 <0>        -0.1197
     30 C19       -13.2711   -0.6630   -0.4405 C.ar      1 <0>        -0.0919
     31 C20       -13.4966   -1.7518    0.3998 C.ar      1 <0>        -0.1204
     32 C21       -12.6656   -2.0140    1.4453 C.ar      1 <0>        -0.0906
     33 C22       -11.5627   -1.1763    1.6838 C.ar      1 <0>        -0.0795
     34 C23       -10.6795   -1.4184    2.7499 C.ar      1 <0>         0.0190
     35 H2          1.0039    1.9031    0.0027 H         1 <0>         0.0568
     36 H3         -0.5459    1.8868   -0.8726 H         1 <0>         0.0579
     37 H4         -0.5289    1.8773    0.9072 H         1 <0>         0.0572
     38 H5         -1.0205   -0.3814    0.0098 H         1 <0>         0.0667
     39 H6          0.5123   -0.3556   -0.8948 H         1 <0>         0.0645
     40 H7          1.7647   -0.1336    1.2338 H         1 <0>         0.0879
     41 H8          0.2319   -0.1594    2.1383 H         1 <0>         0.0886
     42 H9          2.6836   -2.1357    0.3258 H         1 <0>         0.1570
     43 H10        -2.2970   -2.9223    3.6633 H         1 <0>         0.1339
     44 H11        -3.0568   -2.9238    2.0537 H         1 <0>         0.1330
     45 H12        -4.8524   -1.4578    4.9015 H         1 <0>         0.0872
     46 H13        -3.9729   -1.6159    3.3586 H         1 <0>         0.1036
     47 H14        -6.1159   -0.2188    3.2469 H         1 <0>         0.1109
     48 H15        -6.0367   -1.5737    2.0907 H         1 <0>         0.0803
     49 H16        -8.3714   -3.5913    4.3364 H         1 <0>         0.1096
     50 H17        -7.4919   -3.7495    2.7935 H         1 <0>         0.0796
     51 H18        -6.2322   -4.9882    4.4394 H         1 <0>         0.1116
     52 H19        -6.3124   -3.6369    5.5999 H         1 <0>         0.0822
     53 H20        -8.5520    1.1508    2.2939 H         1 <0>         0.1390
     54 H21       -10.0433    1.6159    0.4252 H         1 <0>         0.1371
     55 H22       -12.0513    1.0096   -0.8992 H         1 <0>         0.1334
     56 H23       -13.9460   -0.4771   -1.2629 H         1 <0>         0.1296
     57 H24       -14.3437   -2.3969    0.2189 H         1 <0>         0.1300
     58 H25       -12.8530   -2.8612    2.0884 H         1 <0>         0.1344
     59 H26       -10.8393   -2.2608    3.4066 H         1 <0>         0.1454
@<TRIPOS>BOND
     1    1    2 1
     2    1   35 1
     3    1   36 1
     4    1   37 1
     5    2    3 1
     6    2   38 1
     7    2   39 1
     8    3    4 1
     9    3   40 1
    10    3   41 1
    11    4   11 1
    12    4    5 2
    13    5    6 1
    14    5   42 1
    15    6    7 2
    16    6    8 am
    17    8    9 1
    18    8   10 1
    19   10   11 2
    20   10   12 1
    21   12   13 1
    22   13   14 1
    23   13   43 1
    24   13   44 1
    25   14   15 2
    26   14   16 am
    27   16   21 1
    28   16   17 1
    29   17   18 1
    30   17   45 1
    31   17   46 1
    32   18   19 1
    33   18   47 1
    34   18   48 1
    35   19   20 1
    36   19   22 1
    37   20   21 1
    38   20   49 1
    39   20   50 1
    40   21   51 1
    41   21   52 1
    42   22   23 2
    43   22   24 2
    44   22   25 1
    45   25   34 ar
    46   25   26 ar
    47   26   27 ar
    48   26   53 1
    49   27   28 ar
    50   27   54 1
    51   28   33 ar
    52   28   29 ar
    53   29   30 ar
    54   29   55 1
    55   30   31 ar
    56   30   56 1
    57   31   32 ar
    58   31   57 1
    59   32   33 ar
    60   32   58 1
    61   33   34 ar
    62   34   59 1
@<TRIPOS>MOLECULE
ZINC40015346
   64    69     0     0     0
SMALL
USER_CHARGES

@<TRIPOS>ATOM
      1 C1          1.9922    1.5614    0.9745 C.3       1 <0>        -0.1512
      2 C2          1.8738    0.0364    0.9360 C.3       1 <0>        -0.1186
      3 C3          2.1195   -0.4583   -0.4908 C.3       1 <0>        -0.1373
      4 C4          2.0012   -1.9832   -0.5293 C.3       1 <0>         0.1124
      5 N1          2.1269   -2.4480   -1.9129 N.am      1 <0>        -0.5510
      6 C5          1.0565   -2.5371   -2.8049 C.ar      1 <0>         0.1617
      7 C6         -0.2939   -2.2368   -2.6400 C.ar      1 <0>        -0.1467
      8 C7         -1.1755   -2.4093   -3.6866 C.ar      1 <0>        -0.0889
      9 C8         -0.7276   -2.8812   -4.9070 C.ar      1 <0>        -0.1486
     10 C9          0.6121   -3.1816   -5.0793 C.ar      1 <0>        -0.0453
     11 C10         1.4953   -3.0106   -4.0369 C.ar      1 <0>        -0.1114
     12 C11         2.9767   -3.2354   -3.8920 C.3       1 <0>         0.2669
     13 C12         3.2886   -2.8331   -2.4731 C.2       1 <0>         0.5366
     14 O1          4.3769   -2.8547   -1.9381 O.2       1 <0>        -0.4887
     15 C13         3.7546   -2.4012   -4.8730 C.2       1 <0>        -0.4719
     16 C14         4.4880   -3.2662   -5.6153 C.2       1 <0>         0.2936
     17 C15         4.2209   -4.6457   -5.1574 C.2       1 <0>         0.5200
     18 O2          4.7272   -5.6463   -5.6253 O.2       1 <0>        -0.5073
     19 N2          3.3327   -4.6296   -4.1439 N.am      1 <0>        -0.5879
     20 C16         2.8180   -5.7979   -3.4252 C.3       1 <0>         0.1288
     21 C17         1.5558   -6.3100   -4.1220 C.3       1 <0>         0.0600
     22 H1          0.8335   -5.4996   -4.2208 H         1 <0>         0.0897
     23 C18         0.9384   -7.4651   -3.3046 C.3       1 <0>        -0.1485
     24 C19         0.4712   -8.4430   -4.4170 C.3       1 <0>        -0.1534
     25 C20         1.5751   -8.2256   -5.4824 C.3       1 <0>         0.0491
     26 O3          1.8898   -6.8237   -5.4166 O.3       1 <0>        -0.3566
     27 O4          5.3303   -2.9215   -6.6172 O.3       1 <0>        -0.5798
     28 C21         3.7252   -0.9401   -5.0008 C.2       1 <0>         0.5013
     29 O5          2.8649   -0.2958   -4.4278 O.2       1 <0>        -0.4988
     30 C22         4.7334   -0.2541   -5.8198 C.2       1 <0>         0.0112
     31 C23         4.7238    1.0721   -6.1262 C.2       1 <0>        -0.1777
     32 C24         5.9067    1.3047   -6.9523 C.ar      1 <0>        -0.1447
     33 C25         6.4542    2.4302   -7.5746 C.ar      1 <0>        -0.0718
     34 C26         7.6068    2.3102   -8.2979 C.ar      1 <0>        -0.1501
     35 C27         8.2369    1.0788   -8.4185 C.ar      1 <0>        -0.1034
     36 C28         7.7131   -0.0432   -7.8130 C.ar      1 <0>        -0.1025
     37 C29         6.5416    0.0537   -7.0714 C.ar      1 <0>         0.0589
     38 O6          5.8121   -0.8418   -6.3775 O.3       1 <0>        -0.1015
     39 H2          2.9916    1.8564    0.6547 H         1 <0>         0.0548
     40 H3          1.2522    2.0002    0.3053 H         1 <0>         0.0546
     41 H4          1.8171    1.9138    1.9910 H         1 <0>         0.0520
     42 H5          2.6139   -0.4024    1.6052 H         1 <0>         0.0614
     43 H6          0.8745   -0.2586    1.2558 H         1 <0>         0.0609
     44 H7          1.3795   -0.0194   -1.1600 H         1 <0>         0.0715
     45 H8          3.1189   -0.1632   -0.8106 H         1 <0>         0.0691
     46 H9          2.7933   -2.4245    0.0756 H         1 <0>         0.0851
     47 H10         1.0312   -2.2825   -0.1322 H         1 <0>         0.0799
     48 H11        -0.6514   -1.8682   -1.6899 H         1 <0>         0.1181
     49 H12        -2.2212   -2.1749   -3.5523 H         1 <0>         0.1230
     50 H13        -1.4218   -3.0153   -5.7234 H         1 <0>         0.1228
     51 H14         0.9649   -3.5501   -6.0312 H         1 <0>         0.1238
     52 H15         3.5739   -6.5832   -3.4197 H         1 <0>         0.0868
     53 H16         2.5784   -5.5171   -2.3997 H         1 <0>         0.0771
     54 H17         1.6882   -7.9329   -2.6667 H         1 <0>         0.0771
     55 H18         0.0910   -7.1140   -2.7158 H         1 <0>         0.0818
     56 H19         0.4680   -9.4725   -4.0590 H         1 <0>         0.0797
     57 H20        -0.5082   -8.1602   -4.8027 H         1 <0>         0.0770
     58 H21         2.4547   -8.8232   -5.2431 H         1 <0>         0.0577
     59 H22         1.2004   -8.4823   -6.4732 H         1 <0>         0.0814
     60 H23         3.9908    1.8040   -5.8208 H         1 <0>         0.1569
     61 H24         5.9679    3.3903   -7.4843 H         1 <0>         0.1207
     62 H25         8.0307    3.1790   -8.7795 H         1 <0>         0.1216
     63 H26         9.1476    0.9991   -8.9935 H         1 <0>         0.1277
     64 H27         8.2119   -0.9957   -7.9146 H         1 <0>         0.1309
@<TRIPOS>BOND
     1    1    2 1
     2    1   39 1
     3    1   40 1
     4    1   41 1
     5    2    3 1
     6    2   42 1
     7    2   43 1
     8    3    4 1
     9    3   44 1
    10    3   45 1
    11    4    5 1
    12    4   46 1
    13    4   47 1
    14    5   13 am
    15    5    6 1
    16    6   11 ar
    17    6    7 ar
    18    7    8 ar
    19    7   48 1
    20    8    9 ar
    21    8   49 1
    22    9   10 ar
    23    9   50 1
    24   10   11 ar
    25   10   51 1
    26   11   12 1
    27   12   19 1
    28   12   13 1
    29   12   15 1
    30   13   14 2
    31   15   16 2
    32   15   28 1
    33   16   17 1
    34   16   27 1
    35   17   18 2
    36   17   19 am
    37   19   20 1
    38   20   21 1
    39   20   52 1
    40   20   53 1
    41   21   22 1
    42   21   26 1
    43   21   23 1
    44   23   24 1
    45   23   54 1
    46   23   55 1
    47   24   25 1
    48   24   56 1
    49   24   57 1
    50   25   26 1
    51   25   58 1
    52   25   59 1
    53   28   29 2
    54   28   30 1
    55   30   38 1
    56   30   31 2
    57   31   32 1
    58   31   60 1
    59   32   37 ar
    60   32   33 ar
    61   33   34 ar
    62   33   61 1
    63   34   35 ar
    64   34   62 1
    65   35   36 ar
    66   35   63 1
    67   36   37 ar
    68   36   64 1
    69   37   38 1
@<TRIPOS>MOLECULE
ZINC04671843
   48    50     0     0     0
SMALL
USER_CHARGES
2-hydroxy-N-[1-(4-nitrophenyl)ethylideneamino]-2,2-diphenyl-acetamide
@<TRIPOS>ATOM
      1 C1          2.9145    0.6913    0.5084 C.3       1 <0>        -0.1599
      2 C2          1.7440    1.5383    0.9371 C.2       1 <0>         0.1204
      3 N1          0.5436    1.0466    0.9117 N.2       1 <0>        -0.2103
      4 N2          0.3354   -0.2718    0.4857 N.am      1 <0>        -0.5702
      5 C3         -0.9115   -0.7825    0.4593 C.2       1 <0>         0.5148
      6 O1         -1.8537   -0.1007    0.8044 O.2       1 <0>        -0.4769
      7 C4         -1.1354   -2.2006    0.0011 C.3       1 <0>         0.2240
      8 C5         -0.9301   -3.1414    1.1603 C.ar      1 <0>        -0.0857
      9 C6         -1.3915   -2.7998    2.4178 C.ar      1 <0>        -0.1098
     10 C7         -1.2075   -3.6649    3.4802 C.ar      1 <0>        -0.1164
     11 C8         -0.5532   -4.8672    3.2871 C.ar      1 <0>        -0.1079
     12 C9         -0.0868   -5.2063    2.0307 C.ar      1 <0>        -0.1211
     13 C10        -0.2755   -4.3435    0.9673 C.ar      1 <0>        -0.0820
     14 C11        -2.5424   -2.3442   -0.5193 C.ar      1 <0>        -0.1138
     15 C12        -3.6156   -2.1884    0.3379 C.ar      1 <0>        -0.0747
     16 C13        -4.9063   -2.3153   -0.1405 C.ar      1 <0>        -0.1210
     17 C14        -5.1236   -2.6079   -1.4740 C.ar      1 <0>        -0.1073
     18 C15        -4.0502   -2.7693   -2.3300 C.ar      1 <0>        -0.1218
     19 C16        -2.7596   -2.6372   -1.8527 C.ar      1 <0>        -0.1039
     20 O2         -0.2081   -2.5171   -1.0392 O.3       1 <0>        -0.5379
     21 C17         1.9631    2.9262    1.3855 C.ar      1 <0>         0.0103
     22 C18         3.2548    3.4569    1.4196 C.ar      1 <0>        -0.0953
     23 C19         3.4516    4.7574    1.8352 C.ar      1 <0>        -0.0545
     24 C20         2.3747    5.5320    2.2285 C.ar      1 <0>        -0.0346
     25 C21         1.0930    5.0111    2.2023 C.ar      1 <0>        -0.0542
     26 C22         0.8806    3.7141    1.7836 C.ar      1 <0>        -0.0823
     27 N3          2.5946    6.9248    2.6791 N.pl3     1 <0>         0.0246
     28 O3          1.6486    7.6093    3.0256 O.2       1 <0>        -0.1548
     29 O4          3.7216    7.3862    2.7033 O.3       1 <0>        -0.1552
     30 H1          3.0818    0.8175   -0.5613 H         1 <0>         0.0939
     31 H2          3.8058    1.0002    1.0544 H         1 <0>         0.0938
     32 H3          2.7024   -0.3563    0.7219 H         1 <0>         0.0755
     33 H4          1.0888   -0.8169    0.2097 H         1 <0>         0.3971
     34 H5         -1.8991   -1.8586    2.5695 H         1 <0>         0.1263
     35 H6         -1.5716   -3.3998    4.4618 H         1 <0>         0.1278
     36 H7         -0.4062   -5.5415    4.1178 H         1 <0>         0.1266
     37 H8          0.4247   -6.1455    1.8800 H         1 <0>         0.1280
     38 H9          0.0889   -4.6084   -0.0142 H         1 <0>         0.1351
     39 H10        -3.4458   -1.9638    1.3805 H         1 <0>         0.1258
     40 H11        -5.7449   -2.1895    0.5283 H         1 <0>         0.1263
     41 H12        -6.1319   -2.7107   -1.8469 H         1 <0>         0.1253
     42 H13        -4.2199   -2.9983   -3.3717 H         1 <0>         0.1265
     43 H14        -1.9210   -2.7633   -2.5214 H         1 <0>         0.1268
     44 H15        -0.2832   -1.9500   -1.8189 H         1 <0>         0.3885
     45 H16         4.0967    2.8520    1.1171 H         1 <0>         0.1555
     46 H17         4.4492    5.1705    1.8578 H         1 <0>         0.1602
     47 H18         0.2570    5.6216    2.5100 H         1 <0>         0.1593
     48 H19        -0.1203    3.3089    1.7633 H         1 <0>         0.1589
@<TRIPOS>BOND
     1    1    2 1
     2    1   30 1
     3    1   31 1
     4    1   32 1
     5    2    3 2
     6    2   21 1
     7    3    4 1
     8    4    5 am
     9    4   33 1
    10    5    6 2
    11    5    7 1
    12    7    8 1
    13    7   14 1
    14    7   20 1
    15    8   13 ar
    16    8    9 ar
    17    9   10 ar
    18    9   34 1
    19   10   11 ar
    20   10   35 1
    21   11   12 ar
    22   11   36 1
    23   12   13 ar
    24   12   37 1
    25   13   38 1
    26   14   19 ar
    27   14   15 ar
    28   15   16 ar
    29   15   39 1
    30   16   17 ar
    31   16   40 1
    32   17   18 ar
    33   17   41 1
    34   18   19 ar
    35   18   42 1
    36   19   43 1
    37   20   44 1
    38   21   26 ar
    39   21   22 ar
    40   22   23 ar
    41   22   45 1
    42   23   24 ar
    43   23   46 1
    44   24   25 ar
    45   24   27 1
    46   25   26 ar
    47   25   47 1
    48   26   48 1
    49   27   28 2
    50   27   29 1
@<TRIPOS>MOLECULE
ZINC09229717
   41    43     0     0     0
SMALL
USER_CHARGES
N-[(8-cyano-6-thiabicyclo[3.3.0]octa-7,9-dien-7-yl)thiocarbamoyl]-3-(4-nitrophenyl)-prop-2-enamide
@<TRIPOS>ATOM
      1 C1         -0.0155    4.3082    0.0313 C.ar      1 <0>        -0.1022
      2 C2         -0.0426    5.6868    0.0326 C.ar      1 <0>        -0.0544
      3 C3         -1.2525    6.3588    0.0420 C.ar      1 <0>        -0.0337
      4 C4         -2.4437    5.6542    0.0443 C.ar      1 <0>        -0.0540
      5 C5         -2.4334    4.2754    0.0368 C.ar      1 <0>        -0.0894
      6 C6         -1.2149    3.5890    0.0273 C.ar      1 <0>        -0.0282
      7 C7         -1.1949    2.1174    0.0192 C.2       1 <0>        -0.0090
      8 C8         -0.0178    1.4589    0.0101 C.2       1 <0>        -0.1983
      9 C9          0.0021   -0.0041    0.0020 C.2       1 <0>         0.5276
     10 O1         -1.0433   -0.6267    0.0087 O.2       1 <0>        -0.4080
     11 N1          1.1783   -0.6620   -0.0127 N.am      1 <0>        -0.6309
     12 C10         1.1965   -2.0096   -0.0202 C.2       1 <0>         0.4763
     13 S1         -0.2743   -2.8857   -0.0108 S.2       1 <0>        -0.3620
     14 N2          2.3727   -2.6675   -0.0349 N.pl3     1 <0>        -0.5539
     15 C11         2.3915   -4.0545   -0.0426 C.2       1 <0>         0.0288
     16 C12         3.4872   -4.8995   -0.0632 C.2       1 <0>        -0.0780
     17 C13         3.2324   -6.3394   -0.0630 C.2       1 <0>        -0.1079
     18 C14         1.9331   -6.6894   -0.0522 C.2       1 <0>        -0.2555
     19 S2          1.0503   -5.1483   -0.0362 S.3       1 <0>         0.3719
     20 C15         1.7515   -8.1831   -0.0556 C.3       1 <0>        -0.0387
     21 C16         3.1277   -8.7434    0.3666 C.3       1 <0>        -0.1191
     22 C17         4.0773   -7.6139   -0.0796 C.3       1 <0>        -0.0622
     23 C18         4.8225   -4.3825   -0.0796 C.1       1 <0>         0.2622
     24 N3          5.8818   -3.9723   -0.0926 N.1       1 <0>        -0.4257
     25 N4         -1.2726    7.8388    0.0501 N.pl3     1 <0>         0.0230
     26 O2         -2.3355    8.4334    0.0588 O.2       1 <0>        -0.1515
     27 O3         -0.2261    8.4621    0.0481 O.3       1 <0>        -0.1539
     28 H1          0.9294    3.7852    0.0289 H         1 <0>         0.1514
     29 H2          0.8828    6.2437    0.0312 H         1 <0>         0.1592
     30 H3         -3.3839    6.1857    0.0517 H         1 <0>         0.1608
     31 H4         -3.3637    3.7269    0.0387 H         1 <0>         0.1572
     32 H5         -2.1228    1.5647    0.0206 H         1 <0>         0.1530
     33 H6          0.9101    2.0115    0.0042 H         1 <0>         0.1403
     34 H7          2.0116   -0.1656   -0.0180 H         1 <0>         0.4193
     35 H8          3.2061   -2.1711   -0.0402 H         1 <0>         0.4159
     36 H9          0.9856   -8.4746    0.6631 H         1 <0>         0.0797
     37 H10         1.4892   -8.5319   -1.0544 H         1 <0>         0.0851
     38 H11         3.1750   -8.8893    1.4458 H         1 <0>         0.0754
     39 H12         3.3494   -9.6713   -0.1605 H         1 <0>         0.0814
     40 H13         4.9099   -7.5235    0.6181 H         1 <0>         0.0692
     41 H14         4.4485   -7.8088   -1.0857 H         1 <0>         0.0787
@<TRIPOS>BOND
     1    1    6 ar
     2    1    2 ar
     3    1   28 1
     4    2    3 ar
     5    2   29 1
     6    3    4 ar
     7    3   25 1
     8    4    5 ar
     9    4   30 1
    10    5    6 ar
    11    5   31 1
    12    6    7 1
    13    7    8 2
    14    7   32 1
    15    8    9 1
    16    8   33 1
    17    9   10 2
    18    9   11 am
    19   11   12 1
    20   11   34 1
    21   12   13 2
    22   12   14 1
    23   14   15 1
    24   14   35 1
    25   15   19 1
    26   15   16 2
    27   16   17 1
    28   16   23 1
    29   17   22 1
    30   17   18 2
    31   18   19 1
    32   18   20 1
    33   20   21 1
    34   20   36 1
    35   20   37 1
    36   21   22 1
    37   21   38 1
    38   21   39 1
    39   22   40 1
    40   22   41 1
    41   23   24 3
    42   25   26 2
    43   25   27 1
@<TRIPOS>MOLECULE
ZINC16955918
   53    56     0     0     0
SMALL
USER_CHARGES

@<TRIPOS>ATOM
      1 C1         -4.4667   -7.8972    1.7934 C.3       1 <0>        -0.1253
      2 C2         -3.2706   -7.0517    1.4394 C.ar      1 <0>        -0.0217
      3 C3         -3.2871   -5.6919    1.6886 C.ar      1 <0>        -0.1495
      4 C4         -2.1900   -4.9164    1.3639 C.ar      1 <0>         0.0068
      5 C5         -1.0759   -5.5006    0.7903 C.ar      1 <0>        -0.6749
      6 C6         -1.0591   -6.8601    0.5420 C.ar      1 <0>         0.0209
      7 C7         -2.1548   -7.6365    0.8707 C.ar      1 <0>        -0.1468
      8 C8          0.1551   -7.4968   -0.0837 C.3       1 <0>        -0.1730
      9 S1          0.3222   -4.5118    0.3753 S.o2      1 <0>         2.6920
     10 O1          0.6528   -4.8209   -0.9717 O.2       1 <0>        -0.9469
     11 O2          0.0256   -3.1894    0.8027 O.2       1 <0>        -0.9226
     12 N1          1.5872   -5.0374    1.3058 N.pl3     1 <0>        -1.0286
     13 C9          1.5350   -4.9056    2.6853 C.ar      1 <0>         0.3310
     14 C10         2.5596   -5.4671    3.4852 C.ar      1 <0>         0.3791
     15 N2          2.5220   -5.3490    4.7959 N.ar      1 <0>        -0.4835
     16 C11         1.5070   -4.6922    5.3771 C.ar      1 <0>         0.1127
     17 C12         1.4448   -4.5525    6.7728 C.ar      1 <0>        -0.0957
     18 C13         0.4041   -3.8807    7.3395 C.ar      1 <0>        -0.0923
     19 C14        -0.6035   -3.3287    6.5530 C.ar      1 <0>        -0.1157
     20 C15        -0.5748   -3.4453    5.1961 C.ar      1 <0>        -0.0692
     21 C16         0.4831   -4.1306    4.5777 C.ar      1 <0>         0.0703
     22 N3          0.5359   -4.2543    3.2430 N.ar      1 <0>        -0.4393
     23 N4          3.6090   -6.1461    2.8842 N.pl3     1 <0>        -0.7044
     24 C17         4.6715   -6.7289    3.7075 C.3       1 <0>         0.1231
     25 C18         5.6977   -7.4160    2.8043 C.3       1 <0>         0.0640
     26 H1          5.1969   -8.1355    2.1566 H         1 <0>         0.0884
     27 C19         6.7560   -8.1361    3.6674 C.3       1 <0>        -0.1467
     28 C20         8.0662   -7.8600    2.8806 C.3       1 <0>        -0.1564
     29 C21         7.7813   -6.4428    2.3229 C.3       1 <0>         0.0490
     30 O3          6.3776   -6.4375    2.0094 O.3       1 <0>        -0.3766
     31 H2         -4.3632   -8.2636    2.8148 H         1 <0>         0.0791
     32 H3         -5.3728   -7.2967    1.7129 H         1 <0>         0.0740
     33 H4         -4.5293   -8.7430    1.1086 H         1 <0>         0.0725
     34 H5         -4.1574   -5.2356    2.1367 H         1 <0>         0.1331
     35 H6         -2.2032   -3.8541    1.5580 H         1 <0>         0.1457
     36 H7         -2.1402   -8.6995    0.6801 H         1 <0>         0.1308
     37 H8          0.8887   -7.7192    0.6911 H         1 <0>         0.0813
     38 H9         -0.1361   -8.4203   -0.5842 H         1 <0>         0.0881
     39 H10         0.5909   -6.8114   -0.8107 H         1 <0>         0.1014
     40 H11         2.2193   -4.9763    7.3949 H         1 <0>         0.1363
     41 H12         0.3597   -3.7752    8.4134 H         1 <0>         0.1333
     42 H13        -1.4191   -2.8011    7.0251 H         1 <0>         0.1337
     43 H14        -1.3628   -3.0119    4.5981 H         1 <0>         0.1382
     44 H15         3.6395   -6.2352    1.9188 H         1 <0>         0.4087
     45 H16         5.1610   -5.9410    4.2799 H         1 <0>         0.0752
     46 H17         4.2413   -7.4609    4.3911 H         1 <0>         0.0806
     47 H18         6.8039   -7.7009    4.6656 H         1 <0>         0.0836
     48 H19         6.5523   -9.2056    3.7187 H         1 <0>         0.0875
     49 H20         8.9299   -7.8542    3.5455 H         1 <0>         0.0866
     50 H21         8.1990   -8.5805    2.0735 H         1 <0>         0.0806
     51 H22         8.0042   -5.6877    3.0767 H         1 <0>         0.0627
     52 H23         8.3698   -6.2651    1.4228 H         1 <0>         0.0882
     53 H24         2.3647   -5.4376    0.8859 H         1 <0>         0.4306
@<TRIPOS>BOND
     1    1    2 1
     2    1   31 1
     3    1   32 1
     4    1   33 1
     5    2    7 ar
     6    2    3 ar
     7    3    4 ar
     8    3   34 1
     9    4    5 ar
    10    4   35 1
    11    5    6 ar
    12    5    9 1
    13    6    7 ar
    14    6    8 1
    15    7   36 1
    16    8   37 1
    17    8   38 1
    18    8   39 1
    19    9   10 2
    20    9   11 2
    21    9   12 1
    22   12   13 1
    23   12   53 1
    24   13   22 ar
    25   13   14 ar
    26   14   15 ar
    27   14   23 1
    28   15   16 ar
    29   16   21 ar
    30   16   17 ar
    31   17   18 ar
    32   17   40 1
    33   18   19 ar
    34   18   41 1
    35   19   20 ar
    36   19   42 1
    37   20   21 ar
    38   20   43 1
    39   21   22 ar
    40   23   24 1
    41   23   44 1
    42   24   25 1
    43   24   45 1
    44   24   46 1
    45   25   26 1
    46   25   30 1
    47   25   27 1
    48   27   28 1
    49   27   47 1
    50   27   48 1
    51   28   29 1
    52   28   49 1
    53   28   50 1
    54   29   30 1
    55   29   51 1
    56   29   52 1
@<TRIPOS>MOLECULE
ZINC35311038
   53    56     0     0     0
SMALL
USER_CHARGES

@<TRIPOS>ATOM
      1 C1          0.0216    2.1502    0.3499 C.2       1 <0>        -0.2181
      2 C2          1.4207    2.2685    0.1849 C.2       1 <0>        -0.1432
      3 C3          1.9225    1.0206    0.2055 C.2       1 <0>        -0.0816
      4 O1          0.9071    0.1577    0.3732 O.3       1 <0>        -0.1666
      5 C4         -0.2481    0.8371    0.4614 C.2       1 <0>        -0.0103
      6 C5          3.3771    0.6531    0.0638 C.3       1 <0>         0.1808
      7 N1          4.0033    0.6189    1.3878 N.pl3     1 <0>        -0.4700
      8 C6          4.4813    1.6861    2.0639 C.2       1 <0>         0.4823
      9 C7          4.4655    3.0787    1.6052 C.2       1 <0>        -0.2711
     10 C8          4.3772    4.1231    2.5373 C.2       1 <0>        -0.0085
     11 C9          4.3630    5.4171    2.1110 C.2       1 <0>        -0.2432
     12 C10         4.4363    5.7048    0.7403 C.2       1 <0>         0.3279
     13 O2          4.4219    6.9723    0.3228 O.2       1 <0>        -0.6199
     14 C11         4.5250    4.6605   -0.1917 C.2       1 <0>        -0.2395
     15 C12         4.5446    3.3666    0.2348 C.2       1 <0>        -0.0226
     16 N2          4.9724    1.2427    3.2308 N.pl3     1 <0>        -0.4562
     17 N3          4.7855   -0.1462    3.2647 N.2       1 <0>        -0.2797
     18 C13         4.1984   -0.5003    2.1537 C.2       1 <0>         0.2399
     19 S1          3.7383   -2.1427    1.7113 S.3       1 <0>         0.1449
     20 C14         4.2630   -3.1428    3.1309 C.3       1 <0>        -0.1644
     21 C15         3.9235   -4.5893    2.8791 C.2       1 <0>         0.5370
     22 O3          3.3811   -4.9136    1.8440 O.2       1 <0>        -0.5176
     23 N4          4.2228   -5.5226    3.8043 N.am      1 <0>        -0.7158
     24 C16         3.8928   -6.9288    3.5596 C.3       1 <0>         0.1451
     25 C17         5.0145   -7.5825    2.7502 C.3       1 <0>        -0.1299
     26 C18         4.6699   -9.0511    2.4946 C.3       1 <0>        -0.1181
     27 C19         4.5150   -9.7788    3.8316 C.3       1 <0>        -0.1238
     28 C20         3.3932   -9.1250    4.6410 C.3       1 <0>        -0.1169
     29 C21         3.7378   -7.6564    4.8966 C.3       1 <0>        -0.1270
     30 H1         -0.6931    2.9592    0.3844 H         1 <0>         0.1559
     31 H2          1.9795    3.1849    0.0648 H         1 <0>         0.1613
     32 H3         -1.2273    0.4029    0.5989 H         1 <0>         0.2096
     33 H4          3.4601   -0.3284   -0.4029 H         1 <0>         0.1293
     34 H5          3.8803    1.3943   -0.5570 H         1 <0>         0.1539
     35 H6          4.3201    3.9016    3.5927 H         1 <0>         0.1073
     36 H7          4.2950    6.2213    2.8287 H         1 <0>         0.1223
     37 H8          4.5818    4.8821   -1.2472 H         1 <0>         0.1240
     38 H9          4.6167    2.5626   -0.4827 H         1 <0>         0.1122
     39 H10         5.3821    1.7838    3.9238 H         1 <0>         0.4741
     40 H11         5.3394   -3.0409    3.2691 H         1 <0>         0.1331
     41 H12         3.7474   -2.7993    4.0277 H         1 <0>         0.1327
     42 H13         4.6566   -5.2632    4.6322 H         1 <0>         0.4045
     43 H14         2.9584   -6.9910    3.0017 H         1 <0>         0.0930
     44 H15         5.1249   -7.0642    1.7977 H         1 <0>         0.0684
     45 H16         5.9489   -7.5204    3.3081 H         1 <0>         0.0652
     46 H17         3.7356   -9.1133    1.9367 H         1 <0>         0.0659
     47 H18         5.4691   -9.5169    1.9180 H         1 <0>         0.0674
     48 H19         4.2694  -10.8250    3.6495 H         1 <0>         0.0663
     49 H20         5.4493   -9.7166    4.3895 H         1 <0>         0.0634
     50 H21         2.4588   -9.1872    4.0831 H         1 <0>         0.0666
     51 H22         3.2828   -9.6434    5.5935 H         1 <0>         0.0697
     52 H23         4.6722   -7.5943    5.4545 H         1 <0>         0.0699
     53 H24         2.9387   -7.1907    5.4732 H         1 <0>         0.0703
@<TRIPOS>BOND
     1    1    5 2
     2    1    2 1
     3    1   30 1
     4    2    3 2
     5    2   31 1
     6    3    4 1
     7    3    6 1
     8    4    5 1
     9    5   32 1
    10    6    7 1
    11    6   33 1
    12    6   34 1
    13    7   18 1
    14    7    8 1
    15    8    9 2
    16    8   16 1
    17    9   15 1
    18    9   10 1
    19   10   11 2
    20   10   35 1
    21   11   12 1
    22   11   36 1
    23   12   13 2
    24   12   14 1
    25   14   15 2
    26   14   37 1
    27   15   38 1
    28   16   17 1
    29   16   39 1
    30   17   18 2
    31   18   19 1
    32   19   20 1
    33   20   21 1
    34   20   40 1
    35   20   41 1
    36   21   22 2
    37   21   23 am
    38   23   24 1
    39   23   42 1
    40   24   29 1
    41   24   25 1
    42   24   43 1
    43   25   26 1
    44   25   44 1
    45   25   45 1
    46   26   27 1
    47   26   46 1
    48   26   47 1
    49   27   28 1
    50   27   48 1
    51   27   49 1
    52   28   29 1
    53   28   50 1
    54   28   51 1
    55   29   52 1
    56   29   53 1
@<TRIPOS>MOLECULE
ZINC09089751
   44    46     0     0     0
SMALL
USER_CHARGES

@<TRIPOS>ATOM
      1 C1         -0.0187    1.5258    0.0104 C.3       1 <0>        -0.1539
      2 C2          0.0021   -0.0041    0.0020 C.3       1 <0>        -0.1251
      3 C3          0.7421   -0.5109    1.2415 C.3       1 <0>        -0.1274
      4 C4          0.7628   -2.0407    1.2331 C.3       1 <0>         0.1114
      5 N1          1.4714   -2.5260    2.4200 N.pl3     1 <0>        -1.1158
      6 S1          1.3352   -4.1126    2.8746 S.o2      1 <0>         2.7006
      7 O1          2.1482   -4.2756    4.0286 O.2       1 <0>        -0.9540
      8 O2         -0.0524   -4.4185    2.8709 O.2       1 <0>        -0.9479
      9 C5          2.0685   -5.0843    1.6006 C.ar      1 <0>        -0.6710
     10 C6          1.3033   -5.5346    0.5343 C.ar      1 <0>        -0.0134
     11 C7          1.8488   -6.2912   -0.4695 C.ar      1 <0>        -0.0851
     12 C8          3.2195   -6.6388   -0.4489 C.ar      1 <0>         0.1623
     13 C9          3.9675   -6.1628    0.6520 C.ar      1 <0>        -0.1823
     14 C10         3.4135   -5.4010    1.6503 C.ar      1 <0>         0.0559
     15 S2          5.5910   -6.7981    0.3092 S.3       1 <0>         0.0374
     16 C11         5.1887   -7.6276   -1.2220 C.2       1 <0>         0.3913
     17 N2          3.9078   -7.3706   -1.3515 N.2       1 <0>        -0.5173
     18 N3          6.0169   -8.3561   -2.0584 N.am      1 <0>        -0.6118
     19 C12         5.5205   -8.9116   -3.1815 C.2       1 <0>         0.5576
     20 O3          4.3459   -8.7729   -3.4599 O.2       1 <0>        -0.4459
     21 C13         6.4065   -9.6910   -4.0763 C.ar      1 <0>        -0.0888
     22 C14         7.7599   -9.8677   -3.7717 C.ar      1 <0>        -0.1431
     23 C15         8.5501  -10.6025   -4.6342 C.ar      1 <0>         0.1035
     24 N4          8.0444  -11.1326   -5.7300 N.ar      1 <0>        -0.4620
     25 C16         6.7747  -10.9903   -6.0545 C.ar      1 <0>         0.1048
     26 C17         5.9118  -10.2756   -5.2464 C.ar      1 <0>        -0.1081
     27 H1          1.0039    1.9031    0.0027 H         1 <0>         0.0543
     28 H2         -0.5459    1.8868   -0.8726 H         1 <0>         0.0564
     29 H3         -0.5289    1.8773    0.9072 H         1 <0>         0.0555
     30 H4         -1.0205   -0.3814    0.0098 H         1 <0>         0.0672
     31 H5          0.5123   -0.3556   -0.8948 H         1 <0>         0.0650
     32 H6          1.7647   -0.1336    1.2338 H         1 <0>         0.0708
     33 H7          0.2319   -0.1594    2.1383 H         1 <0>         0.0737
     34 H8         -0.2598   -2.4180    1.2409 H         1 <0>         0.0835
     35 H9          1.2730   -2.3923    0.3363 H         1 <0>         0.0669
     36 H10         2.0203   -1.9180    2.9396 H         1 <0>         0.4207
     37 H11         0.2536   -5.2834    0.4948 H         1 <0>         0.1523
     38 H12         1.2250   -6.6260   -1.2851 H         1 <0>         0.1462
     39 H13         4.0234   -5.0545    2.4715 H         1 <0>         0.1524
     40 H14         6.9546   -8.4668   -1.8361 H         1 <0>         0.4321
     41 H15         8.1810   -9.4359   -2.8758 H         1 <0>         0.1401
     42 H16         9.5965  -10.7443   -4.4078 H         1 <0>         0.1680
     43 H17         6.4032  -11.4418   -6.9625 H         1 <0>         0.1699
     44 H18         4.8717  -10.1669   -5.5161 H         1 <0>         0.1532
@<TRIPOS>BOND
     1    1    2 1
     2    1   27 1
     3    1   28 1
     4    1   29 1
     5    2    3 1
     6    2   30 1
     7    2   31 1
     8    3    4 1
     9    3   32 1
    10    3   33 1
    11    4    5 1
    12    4   34 1
    13    4   35 1
    14    5    6 1
    15    5   36 1
    16    6    7 2
    17    6    8 2
    18    6    9 1
    19    9   14 ar
    20    9   10 ar
    21   10   11 ar
    22   10   37 1
    23   11   12 ar
    24   11   38 1
    25   12   17 1
    26   12   13 ar
    27   13   14 ar
    28   13   15 1
    29   14   39 1
    30   15   16 1
    31   16   17 2
    32   16   18 1
    33   18   19 am
    34   18   40 1
    35   19   20 2
    36   19   21 1
    37   21   26 ar
    38   21   22 ar
    39   22   23 ar
    40   22   41 1
    41   23   24 ar
    42   23   42 1
    43   24   25 ar
    44   25   26 ar
    45   25   43 1
    46   26   44 1
@<TRIPOS>MOLECULE
ZINC67236376
   46    49     0     0     0
SMALL
USER_CHARGES

@<TRIPOS>ATOM
      1 C1         -0.0750    1.5024    0.0097 C.3       1 <0>        -0.0958
      2 C2         -0.0434   -0.0043    0.0015 C.2       1 <0>         0.0985
      3 C3         -0.0323   -0.7764   -1.1037 C.2       1 <0>        -0.1853
      4 C4         -0.0020   -2.1263   -0.6901 C.2       1 <0>         0.1230
      5 C5          0.0042   -2.1156    0.7098 C.2       1 <0>        -0.1012
      6 N1         -0.0157   -0.7956    1.1089 N.pl3     1 <0>        -0.5185
      7 H1         -0.0132   -0.4828    2.0270 H         1 <0>         0.4251
      8 C6          0.0336   -3.3440    1.3956 C.2       1 <0>         0.5697
      9 O1          0.0395   -3.3773    2.6150 O.2       1 <0>        -0.5258
     10 N2          0.0546   -4.4856    0.6735 N.am      1 <0>        -0.5092
     11 C7          0.0477   -4.4405   -0.6911 C.2       1 <0>         0.3338
     12 N3          0.0196   -3.3031   -1.3460 N.2       1 <0>        -0.4973
     13 S1          0.0769   -5.9507   -1.5982 S.3       1 <0>         0.0712
     14 C8          0.0578   -5.4211   -3.3331 C.3       1 <0>        -0.1479
     15 C9          0.0805   -6.6329   -4.2286 C.2       1 <0>         0.5349
     16 O2          0.1069   -7.7446   -3.7441 O.2       1 <0>        -0.5028
     17 N4          0.0715   -6.4815   -5.5678 N.am      1 <0>        -0.6652
     18 C10         0.1901   -7.6007   -6.3992 C.ar      1 <0>         0.1383
     19 C11         0.8854   -7.5067   -7.5976 C.ar      1 <0>        -0.1414
     20 C12         1.0006   -8.6131   -8.4161 C.ar      1 <0>        -0.1022
     21 C13         0.4246   -9.8137   -8.0433 C.ar      1 <0>        -0.1308
     22 C14        -0.2688   -9.9106   -6.8508 C.ar      1 <0>        -0.1022
     23 C15        -0.3824   -8.8094   -6.0250 C.ar      1 <0>        -0.1189
     24 C16         0.0853   -5.7800    1.3588 C.3       1 <0>         0.1771
     25 C17        -1.3246   -6.2541    1.6004 C.2       1 <0>        -0.0525
     26 C18        -2.0522   -7.0165    0.7646 C.2       1 <0>        -0.1714
     27 C19        -3.3068   -7.2205    1.3837 C.2       1 <0>        -0.2180
     28 C20        -3.2708   -6.5706    2.5609 C.2       1 <0>        -0.0253
     29 O3         -2.0656   -5.9919    2.6894 O.3       1 <0>        -0.1634
     30 H2          0.9447    1.8872    0.0014 H         1 <0>         0.0846
     31 H3         -0.6053    1.8595   -0.8732 H         1 <0>         0.0923
     32 H4         -0.5874    1.8502    0.9067 H         1 <0>         0.0734
     33 H5         -0.0447   -0.4247   -2.1248 H         1 <0>         0.1559
     34 H6         -0.8458   -4.8431   -3.5266 H         1 <0>         0.1335
     35 H7          0.9337   -4.8042   -3.5343 H         1 <0>         0.1337
     36 H8         -0.0173   -5.5967   -5.9552 H         1 <0>         0.4154
     37 H9          1.3352   -6.5692   -7.8895 H         1 <0>         0.1264
     38 H10         1.5409   -8.5405   -9.3484 H         1 <0>         0.1274
     39 H11         0.5161  -10.6775   -8.6851 H         1 <0>         0.1244
     40 H12        -0.7179  -10.8495   -6.5627 H         1 <0>         0.1270
     41 H13        -0.9196   -8.8869   -5.0913 H         1 <0>         0.1398
     42 H14         0.6119   -6.5064    0.7399 H         1 <0>         0.1301
     43 H15         0.6015   -5.6737    2.3130 H         1 <0>         0.1236
     44 H16        -1.7386   -7.3988   -0.1955 H         1 <0>         0.1587
     45 H17        -4.1353   -7.7889    0.9874 H         1 <0>         0.1526
     46 H18        -4.0734   -6.5253    3.2821 H         1 <0>         0.2048
@<TRIPOS>BOND
     1    1    2 1
     2    1   30 1
     3    1   31 1
     4    1   32 1
     5    2    6 1
     6    2    3 2
     7    3    4 1
     8    3   33 1
     9    4   12 1
    10    4    5 2
    11    5    6 1
    12    5    8 1
    13    6    7 1
    14    8    9 2
    15    8   10 am
    16   10   11 1
    17   10   24 1
    18   11   12 2
    19   11   13 1
    20   13   14 1
    21   14   15 1
    22   14   34 1
    23   14   35 1
    24   15   16 2
    25   15   17 am
    26   17   18 1
    27   17   36 1
    28   18   23 ar
    29   18   19 ar
    30   19   20 ar
    31   19   37 1
    32   20   21 ar
    33   20   38 1
    34   21   22 ar
    35   21   39 1
    36   22   23 ar
    37   22   40 1
    38   23   41 1
    39   24   25 1
    40   24   42 1
    41   24   43 1
    42   25   29 1
    43   25   26 2
    44   26   27 1
    45   26   44 1
    46   27   28 2
    47   27   45 1
    48   28   29 1
    49   28   46 1
@<TRIPOS>MOLECULE
ZINC07791896
   55    57     0     0     0
SMALL
USER_CHARGES
1-[(2-methylcyclohexyl)carbamoyl]ethyl 4-(2-furylcarbonylamino)benzoate
@<TRIPOS>ATOM
      1 C1         -0.8904   -0.4544   -0.0126 C.3       1 <0>        -0.1495
      2 C2          0.4642    0.2413   -0.1613 C.3       1 <0>        -0.0996
      3 H1          1.1114   -0.0424    0.6686 H         1 <0>         0.0877
      4 C3          0.2619    1.7579   -0.1548 C.3       1 <0>        -0.1163
      5 C4          1.6164    2.4537   -0.3035 C.3       1 <0>        -0.1221
      6 C5          2.2647    2.0312   -1.6234 C.3       1 <0>        -0.1186
      7 C6          2.4669    0.5146   -1.6298 C.3       1 <0>        -0.1322
      8 C7          1.1124   -0.1812   -1.4812 C.3       1 <0>         0.1530
      9 H2          1.2564   -1.2616   -1.4858 H         1 <0>         0.0905
     10 N1          0.2425    0.2002   -2.5965 N.am      1 <0>        -0.7158
     11 C8          0.3123   -0.4683   -3.7647 C.2       1 <0>         0.5193
     12 O1          1.0952   -1.3857   -3.8926 O.2       1 <0>        -0.5147
     13 C9         -0.5826   -0.0760   -4.9120 C.3       1 <0>         0.0707
     14 H3         -1.6221   -0.0938   -4.5846 H         1 <0>         0.1114
     15 C10        -0.2201    1.3341   -5.3825 C.3       1 <0>        -0.1658
     16 O2         -0.4040   -1.0124   -6.0073 O.3       1 <0>        -0.3236
     17 C11        -1.4666   -1.2276   -6.8076 C.2       1 <0>         0.5137
     18 O3         -2.5136   -0.6485   -6.5961 O.2       1 <0>        -0.5047
     19 C12        -1.3586   -2.1657   -7.9400 C.ar      1 <0>        -0.1448
     20 C13        -0.1528   -2.8285   -8.1883 C.ar      1 <0>        -0.0339
     21 C14        -0.0572   -3.7079   -9.2427 C.ar      1 <0>        -0.1574
     22 C15        -1.1557   -3.9289  -10.0684 C.ar      1 <0>         0.1860
     23 C16        -2.3558   -3.2664   -9.8275 C.ar      1 <0>        -0.1362
     24 C17        -2.4601   -2.3901   -8.7715 C.ar      1 <0>        -0.0282
     25 N2         -1.0539   -4.8155  -11.1378 N.am      1 <0>        -0.6650
     26 C18        -1.7405   -4.5826  -12.2739 C.2       1 <0>         0.6085
     27 O4         -2.3728   -3.5507  -12.4021 O.2       1 <0>        -0.4922
     28 C19        -1.7256   -5.5723  -13.3554 C.2       1 <0>        -0.0930
     29 C20        -2.3740   -5.4629  -14.5524 C.2       1 <0>        -0.1043
     30 C21        -2.0845   -6.6300  -15.2762 C.2       1 <0>        -0.2257
     31 C22        -1.2824   -7.3912  -14.4994 C.2       1 <0>         0.0061
     32 O5         -1.0643   -6.7482  -13.3449 O.3       1 <0>        -0.1654
     33 H4         -1.5376   -0.1707   -0.8425 H         1 <0>         0.0546
     34 H5         -0.7463   -1.5349   -0.0172 H         1 <0>         0.0573
     35 H6         -1.3522   -0.1534    0.9277 H         1 <0>         0.0592
     36 H7         -0.3853    2.0417   -0.9847 H         1 <0>         0.0591
     37 H8         -0.1999    2.0589    0.7855 H         1 <0>         0.0683
     38 H9          1.4724    3.5341   -0.2989 H         1 <0>         0.0636
     39 H10         2.2637    2.1699    0.5264 H         1 <0>         0.0644
     40 H11         3.2297    2.5268   -1.7293 H         1 <0>         0.0631
     41 H12         1.6174    2.3149   -2.4533 H         1 <0>         0.0606
     42 H13         3.1141    0.2308   -0.8000 H         1 <0>         0.0736
     43 H14         2.9287    0.2136   -2.5702 H         1 <0>         0.0692
     44 H15        -0.3838    0.9339   -2.4943 H         1 <0>         0.4001
     45 H16        -0.3542    2.0370   -4.5603 H         1 <0>         0.0809
     46 H17         0.8194    1.3519   -5.7099 H         1 <0>         0.0752
     47 H18        -0.8674    1.6178   -6.2123 H         1 <0>         0.0776
     48 H19         0.7013   -2.6541   -7.5507 H         1 <0>         0.1473
     49 H20         0.8725   -4.2236   -9.4324 H         1 <0>         0.1385
     50 H21        -3.2062   -3.4400  -10.4704 H         1 <0>         0.1459
     51 H22        -3.3918   -1.8767   -8.5850 H         1 <0>         0.1440
     52 H23        -0.4888   -5.6005  -11.0649 H         1 <0>         0.4202
     53 H24        -2.9906   -4.6384  -14.8786 H         1 <0>         0.1639
     54 H25        -2.4366   -6.8740  -16.2676 H         1 <0>         0.1611
     55 H26        -0.8801   -8.3570  -14.7671 H         1 <0>         0.2148
@<TRIPOS>BOND
     1    1    2 1
     2    1   33 1
     3    1   34 1
     4    1   35 1
     5    2    3 1
     6    2    8 1
     7    2    4 1
     8    4    5 1
     9    4   36 1
    10    4   37 1
    11    5    6 1
    12    5   38 1
    13    5   39 1
    14    6    7 1
    15    6   40 1
    16    6   41 1
    17    7    8 1
    18    7   42 1
    19    7   43 1
    20    8    9 1
    21    8   10 1
    22   10   11 am
    23   10   44 1
    24   11   12 2
    25   11   13 1
    26   13   14 1
    27   13   15 1
    28   13   16 1
    29   15   45 1
    30   15   46 1
    31   15   47 1
    32   16   17 1
    33   17   18 2
    34   17   19 1
    35   19   24 ar
    36   19   20 ar
    37   20   21 ar
    38   20   48 1
    39   21   22 ar
    40   21   49 1
    41   22   23 ar
    42   22   25 1
    43   23   24 ar
    44   23   50 1
    45   24   51 1
    46   25   26 am
    47   25   52 1
    48   26   27 2
    49   26   28 1
    50   28   32 1
    51   28   29 2
    52   29   30 1
    53   29   53 1
    54   30   31 2
    55   30   54 1
    56   31   32 1
    57   31   55 1
@<TRIPOS>MOLECULE
ZINC14478139
   52    55     0     0     0
SMALL
USER_CHARGES
(3aR,4R,9bR)-4-(2-nitrophenyl)-N-propyl-3a,4,5,9b-tetrahydro-3H-cyclopenta[c]quinoline-8-sulfonamide
@<TRIPOS>ATOM
      1 C1          5.9464   -5.7164    1.1635 C.3       1 <0>        -0.1533
      2 C2          6.2653   -4.8152   -0.0312 C.3       1 <0>        -0.1310
      3 C3          4.9609   -4.3413   -0.6751 C.3       1 <0>         0.1147
      4 N1          5.2663   -3.4785   -1.8190 N.pl3     1 <0>        -1.1201
      5 S1          4.0864   -3.1208   -2.9247 S.o2      1 <0>         2.6983
      6 O1          3.4789   -4.3542   -3.2836 O.2       1 <0>        -0.9608
      7 O2          4.6778   -2.2552   -3.8840 O.2       1 <0>        -0.9632
      8 C4          2.8558   -2.1783   -2.0869 C.ar      1 <0>        -0.7296
      9 C5          1.7964   -2.8175   -1.4688 C.ar      1 <0>         0.0268
     10 C6          0.8358   -2.0830   -0.8046 C.ar      1 <0>        -0.2120
     11 C7          0.9240   -0.6971   -0.7521 C.ar      1 <0>         0.2818
     12 C8          1.9899   -0.0561   -1.3934 C.ar      1 <0>        -0.1596
     13 C9          2.9491   -0.7994   -2.0466 C.ar      1 <0>         0.0335
     14 C10         2.0193    1.4217   -1.3559 C.3       1 <0>        -0.0252
     15 H1          1.3299    1.7922   -2.1145 H         1 <0>         0.0879
     16 C11         3.2859    2.1879   -1.4748 C.2       1 <0>        -0.1449
     17 C12         3.1666    3.3138   -0.7814 C.2       1 <0>        -0.1662
     18 C13         1.7950    3.3695   -0.1060 C.3       1 <0>        -0.0891
     19 C14         1.4528    1.8786    0.0216 C.3       1 <0>        -0.1147
     20 H2          1.9722    1.4030    0.8536 H         1 <0>         0.0998
     21 C15        -0.0184    1.5035   -0.0015 C.3       1 <0>         0.1988
     22 H3         -0.5005    1.9252   -0.8834 H         1 <0>         0.1069
     23 N2         -0.0533    0.0260   -0.0577 N.pl3     1 <0>        -0.7192
     24 C16        -0.6998    1.9929    1.2504 C.ar      1 <0>        -0.0368
     25 C17         0.0554    2.4311    2.3224 C.ar      1 <0>        -0.1019
     26 C18        -0.5697    2.8848    3.4685 C.ar      1 <0>        -0.0651
     27 C19        -1.9500    2.8898    3.5474 C.ar      1 <0>        -0.1090
     28 C20        -2.7049    2.4469    2.4777 C.ar      1 <0>        -0.0542
     29 C21        -2.0797    1.9983    1.3290 C.ar      1 <0>        -0.0357
     30 N3         -2.8881    1.5234    0.1837 N.pl3     1 <0>         0.0236
     31 O3         -4.1016    1.6246    0.2112 O.2       1 <0>        -0.1540
     32 O4         -2.3399    1.0315   -0.7864 O.3       1 <0>        -0.1510
     33 H4          5.3624   -5.1573    1.8946 H         1 <0>         0.0569
     34 H5          5.3738   -6.5798    0.8247 H         1 <0>         0.0593
     35 H6          6.8757   -6.0540    1.6222 H         1 <0>         0.0604
     36 H7          6.8493   -5.3743   -0.7623 H         1 <0>         0.0720
     37 H8          6.8379   -3.9518    0.3076 H         1 <0>         0.0693
     38 H9          4.3769   -3.7823    0.0560 H         1 <0>         0.0650
     39 H10         4.3883   -5.2047   -1.0139 H         1 <0>         0.0803
     40 H11         6.1596   -3.1167   -1.9288 H         1 <0>         0.4177
     41 H12         1.7211   -3.8942   -1.5060 H         1 <0>         0.1389
     42 H13         0.0114   -2.5876   -0.3229 H         1 <0>         0.1292
     43 H14         3.7778   -0.3025   -2.5290 H         1 <0>         0.1374
     44 H15         4.1585    1.8804   -2.0320 H         1 <0>         0.1360
     45 H16         3.9262    4.0777   -0.7050 H         1 <0>         0.1335
     46 H17         1.8615    3.8402    0.8749 H         1 <0>         0.0761
     47 H18         1.0699    3.8845   -0.7362 H         1 <0>         0.0830
     48 H19        -0.7663   -0.4509    0.3952 H         1 <0>         0.4007
     49 H20         1.1337    2.4227    2.2626 H         1 <0>         0.1528
     50 H21         0.0202    3.2313    4.3042 H         1 <0>         0.1479
     51 H22        -2.4384    3.2402    4.4447 H         1 <0>         0.1514
     52 H23        -3.7831    2.4508    2.5393 H         1 <0>         0.1570
@<TRIPOS>BOND
     1    1    2 1
     2    1   33 1
     3    1   34 1
     4    1   35 1
     5    2    3 1
     6    2   36 1
     7    2   37 1
     8    3    4 1
     9    3   38 1
    10    3   39 1
    11    4    5 1
    12    4   40 1
    13    5    6 2
    14    5    7 2
    15    5    8 1
    16    8   13 ar
    17    8    9 ar
    18    9   10 ar
    19    9   41 1
    20   10   11 ar
    21   10   42 1
    22   11   23 1
    23   11   12 ar
    24   12   13 ar
    25   12   14 1
    26   13   43 1
    27   14   15 1
    28   14   19 1
    29   14   16 1
    30   16   17 2
    31   16   44 1
    32   17   18 1
    33   17   45 1
    34   18   19 1
    35   18   46 1
    36   18   47 1
    37   19   20 1
    38   19   21 1
    39   21   22 1
    40   21   23 1
    41   21   24 1
    42   23   48 1
    43   24   29 ar
    44   24   25 ar
    45   25   26 ar
    46   25   49 1
    47   26   27 ar
    48   26   50 1
    49   27   28 ar
    50   27   51 1
    51   28   29 ar
    52   28   52 1
    53   29   30 1
    54   30   31 2
    55   30   32 1
@<TRIPOS>MOLECULE
ZINC05002932
   44    46     0     0     0
SMALL
USER_CHARGES

@<TRIPOS>ATOM
      1 C1         -4.0820   -2.4050    0.4949 C.3       1 <0>        -0.1525
      2 C2         -2.5615   -2.4089    0.3245 C.3       1 <0>        -0.1228
      3 C3         -1.9125   -3.0555    1.5499 C.3       1 <0>        -0.1193
      4 C4         -0.3921   -3.0593    1.3794 C.3       1 <0>         0.0615
      5 O1          0.2196   -3.5565    2.5713 O.3       1 <0>        -0.3441
      6 C5          1.5677   -3.5295    2.6252 C.2       1 <0>         0.5433
      7 O2          2.2023   -3.0114    1.7255 O.2       1 <0>        -0.4795
      8 C6          2.2431   -4.1035    3.7276 C.2       1 <0>        -0.2643
      9 C7          2.3732   -5.4423    3.8467 C.2       1 <0>         0.2168
     10 N1          3.0259   -5.9951    4.9113 N.am      1 <0>        -0.6483
     11 C8          3.5760   -5.2778    5.8990 C.2       1 <0>         0.7081
     12 O3          4.1373   -5.8602    6.8064 O.2       1 <0>        -0.5586
     13 N2          3.5280   -3.9311    5.9199 N.am      1 <0>        -0.7104
     14 C9          2.8507   -3.2367    4.8118 C.3       1 <0>         0.2436
     15 H1          2.0553   -2.6259    5.2389 H         1 <0>         0.1048
     16 C10         3.8445   -2.3085    4.1622 C.ar      1 <0>        -0.0692
     17 C11         5.1718   -2.6820    4.0583 C.ar      1 <0>        -0.0751
     18 C12         6.0871   -1.8306    3.4621 C.ar      1 <0>         0.0537
     19 C13         5.6671   -0.5979    2.9673 C.ar      1 <0>         0.0462
     20 C14         4.3363   -0.2296    3.0743 C.ar      1 <0>        -0.0671
     21 C15         3.4261   -1.0874    3.6661 C.ar      1 <0>        -0.0642
     22 Br1         1.6082   -0.5854    3.8041 Br        1 <0>        -0.0230
     23 O4          6.7449    0.0481    2.4342 O.3       1 <0>        -0.3018
     24 C16         7.9000   -0.6224    2.9721 C.3       1 <0>         0.2120
     25 O5          7.4280   -1.9563    3.2386 O.3       1 <0>        -0.3028
     26 C17         1.7883   -6.3410    2.7878 C.3       1 <0>        -0.1392
     27 H2         -4.3460   -1.8380    1.3876 H         1 <0>         0.0557
     28 H3         -4.5443   -1.9443   -0.3781 H         1 <0>         0.0575
     29 H4         -4.4388   -3.4299    0.5967 H         1 <0>         0.0560
     30 H5         -2.2974   -2.9758   -0.5682 H         1 <0>         0.0656
     31 H6         -2.2047   -1.3839    0.2227 H         1 <0>         0.0655
     32 H7         -2.1766   -2.4885    2.4425 H         1 <0>         0.0742
     33 H8         -2.2693   -4.0804    1.6516 H         1 <0>         0.0742
     34 H9         -0.1223   -3.6985    0.5387 H         1 <0>         0.0674
     35 H10        -0.0452   -2.0436    1.1895 H         1 <0>         0.0715
     36 H11         3.0946   -6.9617    4.9544 H         1 <0>         0.4301
     37 H12         3.9330   -3.4310    6.6457 H         1 <0>         0.4362
     38 H13         5.4950   -3.6382    4.4427 H         1 <0>         0.1398
     39 H14         4.0081    0.7255    2.6919 H         1 <0>         0.1485
     40 H15         8.7075   -0.6410    2.2401 H         1 <0>         0.1372
     41 H16         8.2279   -0.1409    3.8934 H         1 <0>         0.0900
     42 H17         2.5565   -6.5863    2.0545 H         1 <0>         0.0967
     43 H18         1.4221   -7.2574    3.2507 H         1 <0>         0.0919
     44 H19         0.9631   -5.8294    2.2924 H         1 <0>         0.0940
@<TRIPOS>BOND
     1    1    2 1
     2    1   27 1
     3    1   28 1
     4    1   29 1
     5    2    3 1
     6    2   30 1
     7    2   31 1
     8    3    4 1
     9    3   32 1
    10    3   33 1
    11    4    5 1
    12    4   34 1
    13    4   35 1
    14    5    6 1
    15    6    7 2
    16    6    8 1
    17    8   14 1
    18    8    9 2
    19    9   10 1
    20    9   26 1
    21   10   11 am
    22   10   36 1
    23   11   12 2
    24   11   13 am
    25   13   14 1
    26   13   37 1
    27   14   15 1
    28   14   16 1
    29   16   21 ar
    30   16   17 ar
    31   17   18 ar
    32   17   38 1
    33   18   25 1
    34   18   19 ar
    35   19   20 ar
    36   19   23 1
    37   20   21 ar
    38   20   39 1
    39   21   22 1
    40   23   24 1
    41   24   25 1
    42   24   40 1
    43   24   41 1
    44   26   42 1
    45   26   43 1
    46   26   44 1
@<TRIPOS>MOLECULE
ZINC46131718
   48    51     0     0     0
SMALL
USER_CHARGES

@<TRIPOS>ATOM
      1 C1         -0.8428    1.4287    3.1308 C.ar      1 <0>        -0.0432
      2 C2          0.0841    2.1216    3.8797 C.ar      1 <0>        -0.1185
      3 C3          0.9113    1.4461    4.7661 C.ar      1 <0>         0.0607
      4 C4          0.8067    0.0611    4.9023 C.ar      1 <0>         0.0157
      5 C5         -0.1211   -0.6375    4.1547 C.ar      1 <0>        -0.0475
      6 C6         -0.9522    0.0436    3.2627 C.ar      1 <0>        -0.1082
      7 C7         -1.9461   -0.7012    2.4596 C.2       1 <0>         0.5547
      8 O1         -2.0404   -1.9104    2.5758 O.2       1 <0>        -0.5665
      9 N1         -2.7430   -0.0460    1.6041 N.2       1 <0>        -0.6807
     10 C8         -3.5710   -0.7207    0.8216 C.2       1 <0>         0.6960
     11 N2         -4.5254   -0.0578    0.1049 N.pl3     1 <0>        -0.6448
     12 C9         -4.5371    1.3417    0.0817 C.ar      1 <0>         0.1637
     13 C10        -3.3410    2.0465    0.0412 C.ar      1 <0>        -0.0660
     14 C11        -3.3542    3.4273    0.0179 C.ar      1 <0>        -0.1239
     15 C12        -4.5587    4.1098    0.0349 C.ar      1 <0>         0.1015
     16 C13        -5.7535    3.4091    0.0753 C.ar      1 <0>        -0.0580
     17 C14        -5.7445    2.0269    0.0934 C.ar      1 <0>        -0.1062
     18 Cl1        -7.2624    4.2673    0.0971 Cl        1 <0>        -0.0427
     19 F1         -4.5692    5.4606    0.0125 F         1 <0>        -0.1249
     20 N3         -3.4705   -2.0784    0.7315 N.pl3     1 <0>        -0.6995
     21 C15        -4.4560   -2.8360   -0.0437 C.3       1 <0>         0.0911
     22 C16        -4.1925   -4.3341    0.1215 C.3       1 <0>         0.0719
     23 H1         -4.3062   -4.6247    1.1658 H         1 <0>         0.0836
     24 C17        -5.1583   -5.1519   -0.7726 C.3       1 <0>        -0.1488
     25 C18        -4.3461   -6.4619   -0.9625 C.3       1 <0>        -0.1557
     26 C19        -2.8917   -5.9448   -0.9895 C.3       1 <0>         0.0498
     27 O2         -2.8750   -4.6631   -0.3470 O.3       1 <0>        -0.3757
     28 O3          1.7215   -0.3557    5.8262 O.3       1 <0>        -0.3065
     29 C20         2.6613    0.7277    5.9515 C.3       1 <0>         0.2123
     30 O4          1.8899    1.8927    5.6045 O.3       1 <0>        -0.3059
     31 H2         -1.4876    1.9583    2.4451 H         1 <0>         0.1546
     32 H3          0.1671    3.1934    3.7762 H         1 <0>         0.1419
     33 H4         -0.2029   -1.7094    4.2589 H         1 <0>         0.1451
     34 H5         -5.1954   -0.5567   -0.3883 H         1 <0>         0.4209
     35 H6         -2.4010    1.5149    0.0283 H         1 <0>         0.1552
     36 H7         -2.4240    3.9752   -0.0132 H         1 <0>         0.1517
     37 H8         -6.6758    1.4807    0.1204 H         1 <0>         0.1454
     38 H9         -2.7465   -2.5420    1.1807 H         1 <0>         0.4405
     39 H10        -5.4583   -2.6017    0.3149 H         1 <0>         0.0845
     40 H11        -4.3748   -2.5668   -1.0968 H         1 <0>         0.0771
     41 H12        -6.1004   -5.3446   -0.2594 H         1 <0>         0.0894
     42 H13        -5.3277   -4.6529   -1.7267 H         1 <0>         0.0838
     43 H14        -4.5013   -7.1397   -0.1230 H         1 <0>         0.0800
     44 H15        -4.6037   -6.9448   -1.9051 H         1 <0>         0.0865
     45 H16        -2.2436   -6.6356   -0.4502 H         1 <0>         0.0720
     46 H17        -2.5532   -5.8470   -2.0209 H         1 <0>         0.0722
     47 H18         3.0264    0.8014    6.9759 H         1 <0>         0.1343
     48 H19         3.4911    0.5971    5.2568 H         1 <0>         0.0870
@<TRIPOS>BOND
     1    1    6 ar
     2    1    2 ar
     3    1   31 1
     4    2    3 ar
     5    2   32 1
     6    3   30 1
     7    3    4 ar
     8    4    5 ar
     9    4   28 1
    10    5    6 ar
    11    5   33 1
    12    6    7 1
    13    7    9 1
    14    7    8 2
    15    9   10 2
    16   10   11 1
    17   10   20 1
    18   11   12 1
    19   11   34 1
    20   12   17 ar
    21   12   13 ar
    22   13   14 ar
    23   13   35 1
    24   14   15 ar
    25   14   36 1
    26   15   16 ar
    27   15   19 1
    28   16   17 ar
    29   16   18 1
    30   17   37 1
    31   20   21 1
    32   20   38 1
    33   21   22 1
    34   21   39 1
    35   21   40 1
    36   22   23 1
    37   22   27 1
    38   22   24 1
    39   24   25 1
    40   24   41 1
    41   24   42 1
    42   25   26 1
    43   25   43 1
    44   25   44 1
    45   26   27 1
    46   26   45 1
    47   26   46 1
    48   28   29 1
    49   29   30 1
    50   29   47 1
    51   29   48 1
@<TRIPOS>MOLECULE
ZINC64755672
   51    54     0     0     0
SMALL
USER_CHARGES

@<TRIPOS>ATOM
      1 C1          0.2482    1.7299   -0.4385 C.3       1 <0>        -0.0820
      2 C2          0.3771    0.3768    0.2123 C.2       1 <0>         0.0194
      3 C3         -0.5312   -0.1851    1.0406 C.2       1 <0>        -0.2203
      4 C4         -0.0277   -1.4388    1.4195 C.2       1 <0>        -0.1429
      5 C5          1.1905   -1.5799    0.7875 C.2       1 <0>        -0.0301
      6 O1          1.4080   -0.4656    0.0581 O.3       1 <0>        -0.1637
      7 C6          2.0557   -2.6967    0.8831 C.2       1 <0>         0.0374
      8 C7          3.2304   -2.7046    0.2050 C.2       1 <0>        -0.2291
      9 C8          4.0951   -3.8207    0.3005 C.2       1 <0>         0.5570
     10 O2          3.7844   -4.7743    0.9916 O.2       1 <0>        -0.5287
     11 N1          5.2623   -3.8285   -0.3732 N.am      1 <0>        -0.6692
     12 C9          6.1614   -4.8886   -0.2039 C.ar      1 <0>         0.1337
     13 C10         5.6822   -6.1843   -0.0176 C.ar      1 <0>        -0.0710
     14 C11         6.5531   -7.2375    0.1499 C.ar      1 <0>        -0.0929
     15 C12         7.9259   -7.0167    0.1351 C.ar      1 <0>         0.0748
     16 C13         8.4119   -5.7110   -0.0526 C.ar      1 <0>        -0.1420
     17 C14         7.5230   -4.6491   -0.2274 C.ar      1 <0>        -0.0795
     18 C15         9.8744   -5.8200   -0.0172 C.2       1 <0>         0.1140
     19 C16        10.1471   -7.1437    0.1831 C.2       1 <0>        -0.0547
     20 O3          8.9890   -7.8357    0.2708 O.3       1 <0>        -0.1748
     21 C17        11.4851   -7.7226    0.2867 C.2       1 <0>         0.6014
     22 O4         12.4666   -7.0080    0.1934 O.2       1 <0>        -0.4824
     23 N2         11.6326   -9.0474    0.4856 N.am      1 <0>        -0.6622
     24 C18        12.9066   -9.5860    0.6909 C.ar      1 <0>         0.1425
     25 C19        13.2087  -10.8576    0.2208 C.ar      1 <0>        -0.1415
     26 C20        14.4681  -11.3864    0.4249 C.ar      1 <0>        -0.0998
     27 C21        15.4276  -10.6516    1.0969 C.ar      1 <0>        -0.1319
     28 C22        15.1301   -9.3853    1.5663 C.ar      1 <0>        -0.0996
     29 C23        13.8744   -8.8483    1.3605 C.ar      1 <0>        -0.1203
     30 O5         10.7718   -4.8133   -0.1557 O.3       1 <0>        -0.2920
     31 C24        11.1848   -4.1436    1.0372 C.3       1 <0>         0.0379
     32 H1          1.1255    1.9209   -1.0565 H         1 <0>         0.0792
     33 H2         -0.6462    1.7499   -1.0611 H         1 <0>         0.0916
     34 H3          0.1721    2.4976    0.3316 H         1 <0>         0.0916
     35 H4         -1.4690    0.2499    1.3530 H         1 <0>         0.1561
     36 H5         -0.5008   -2.1530    2.0771 H         1 <0>         0.1595
     37 H6          1.7802   -3.5423    1.4959 H         1 <0>         0.1629
     38 H7          3.5059   -1.8590   -0.4078 H         1 <0>         0.1335
     39 H8          5.4796   -3.0998   -0.9754 H         1 <0>         0.4151
     40 H9          4.6173   -6.3637   -0.0042 H         1 <0>         0.1577
     41 H10         6.1693   -8.2368    0.2934 H         1 <0>         0.1448
     42 H11         7.8963   -3.6466   -0.3761 H         1 <0>         0.1374
     43 H12        10.8550   -9.6273    0.4862 H         1 <0>         0.4174
     44 H13        12.4595  -11.4323   -0.3035 H         1 <0>         0.1272
     45 H14        14.7037  -12.3751    0.0596 H         1 <0>         0.1282
     46 H15        16.4115  -11.0677    1.2558 H         1 <0>         0.1251
     47 H16        15.8816   -8.8142    2.0910 H         1 <0>         0.1274
     48 H17        13.6439   -7.8577    1.7237 H         1 <0>         0.1336
     49 H18        10.3168   -3.6974    1.5225 H         1 <0>         0.0487
     50 H19        11.6507   -4.8603    1.7135 H         1 <0>         0.0525
     51 H20        11.9020   -3.3623    0.7856 H         1 <0>         0.1032
@<TRIPOS>BOND
     1    1    2 1
     2    1   32 1
     3    1   33 1
     4    1   34 1
     5    2    6 1
     6    2    3 2
     7    3    4 1
     8    3   35 1
     9    4    5 2
    10    4   36 1
    11    5    6 1
    12    5    7 1
    13    7    8 2
    14    7   37 1
    15    8    9 1
    16    8   38 1
    17    9   10 2
    18    9   11 am
    19   11   12 1
    20   11   39 1
    21   12   17 ar
    22   12   13 ar
    23   13   14 ar
    24   13   40 1
    25   14   15 ar
    26   14   41 1
    27   15   20 1
    28   15   16 ar
    29   16   17 ar
    30   16   18 1
    31   17   42 1
    32   18   19 2
    33   18   30 1
    34   19   20 1
    35   19   21 1
    36   21   22 2
    37   21   23 am
    38   23   24 1
    39   23   43 1
    40   24   29 ar
    41   24   25 ar
    42   25   26 ar
    43   25   44 1
    44   26   27 ar
    45   26   45 1
    46   27   28 ar
    47   27   46 1
    48   28   29 ar
    49   28   47 1
    50   29   48 1
    51   30   31 1
    52   31   49 1
    53   31   50 1
    54   31   51 1
@<TRIPOS>MOLECULE
ZINC12145040
   51    54     0     0     0
SMALL
USER_CHARGES
N-[(1R)-1-(benzotriazol-1-ylmethyl)-2-methyl-propyl]-2-(4-oxo-3H-phthalazin-1-yl)acetamide
@<TRIPOS>ATOM
      1 C1          2.9799   -2.8010   -0.8393 C.3       1 <0>        -0.1511
      2 C2          3.9020   -1.7675   -1.4893 C.3       1 <0>        -0.1035
      3 C3          4.1890   -2.1779   -2.9350 C.3       1 <0>        -0.1381
      4 C4          3.2227   -0.3966   -1.4736 C.3       1 <0>         0.1364
      5 H1          3.8397    0.3208   -2.0146 H         1 <0>         0.1025
      6 C5          3.0484    0.0696   -0.0268 C.3       1 <0>         0.1216
      7 N1          2.5081    1.4312   -0.0142 N.pl3     1 <0>        -0.3919
      8 C6          1.1811    1.7895    0.0004 C.ar      1 <0>         0.0922
      9 C7         -0.0126    1.0758    0.0080 C.ar      1 <0>        -0.1315
     10 C8         -1.2042    1.7450    0.0172 C.ar      1 <0>        -0.0620
     11 C9         -1.2347    3.1336    0.0300 C.ar      1 <0>        -0.1371
     12 C10        -0.0781    3.8568    0.0232 C.ar      1 <0>        -0.0304
     13 C11         1.1570    3.1950    0.0082 C.ar      1 <0>        -0.0187
     14 N2          2.4341    3.6262   -0.0017 N.2       1 <0>        -0.2174
     15 N3          3.2432    2.6261   -0.0148 N.2       1 <0>        -0.0029
     16 N4          1.9100   -0.4946   -2.1165 N.am      1 <0>        -0.7291
     17 C12         1.8060   -0.3871   -3.4560 C.2       1 <0>         0.5088
     18 O1          2.7992   -0.2093   -4.1290 O.2       1 <0>        -0.4811
     19 C13         0.4557   -0.4879   -4.1174 C.3       1 <0>        -0.0775
     20 C14         0.6140   -0.3358   -5.6083 C.2       1 <0>         0.1155
     21 C15        -0.5597   -0.4030   -6.4791 C.ar      1 <0>        -0.0525
     22 C16        -1.8453   -0.5954   -5.9695 C.ar      1 <0>        -0.1025
     23 C17        -2.9114   -0.6439   -6.8235 C.ar      1 <0>        -0.0861
     24 C18        -2.7353   -0.4994   -8.1937 C.ar      1 <0>        -0.1136
     25 C19        -1.4793   -0.3035   -8.7246 C.ar      1 <0>        -0.0525
     26 C20        -0.3770   -0.2501   -7.8725 C.ar      1 <0>        -0.1269
     27 C21         0.9866   -0.0436   -8.3759 C.2       1 <0>         0.5251
     28 O2          1.1944    0.0878   -9.5689 O.2       1 <0>        -0.5227
     29 N5          2.0053   -0.0024   -7.4919 N.am      1 <0>        -0.5361
     30 H2          2.9085    0.1338   -7.8184 H         1 <0>         0.4373
     31 N6          1.7939   -0.1501   -6.1209 N.2       1 <0>        -0.1611
     32 H3          2.0436   -2.8530   -1.3950 H         1 <0>         0.0574
     33 H4          3.4638   -3.7777   -0.8505 H         1 <0>         0.0609
     34 H5          2.7754   -2.5087    0.1907 H         1 <0>         0.0536
     35 H6          4.8382   -1.7155   -0.9336 H         1 <0>         0.0835
     36 H7          3.2527   -2.2299   -3.4907 H         1 <0>         0.0588
     37 H8          4.8459   -1.4416   -3.3981 H         1 <0>         0.0623
     38 H9          4.6729   -3.1545   -2.9462 H         1 <0>         0.0494
     39 H10         4.0146    0.0574    0.4778 H         1 <0>         0.1197
     40 H11         2.3602   -0.5992    0.4900 H         1 <0>         0.1050
     41 H12         0.0021   -0.0041    0.0020 H         1 <0>         0.1274
     42 H13        -2.1302    1.1892    0.0182 H         1 <0>         0.1389
     43 H14        -2.1850    3.6467    0.0411 H         1 <0>         0.1377
     44 H15        -0.1141    4.9362    0.0297 H         1 <0>         0.1383
     45 H16         1.1157   -0.6369   -1.5783 H         1 <0>         0.3948
     46 H17         0.0144   -1.4597   -3.8962 H         1 <0>         0.1219
     47 H18        -0.1942    0.3009   -3.7387 H         1 <0>         0.1212
     48 H19        -1.9961   -0.7092   -4.9061 H         1 <0>         0.1393
     49 H20        -3.9045   -0.7970   -6.4274 H         1 <0>         0.1361
     50 H21        -3.5921   -0.5415   -8.8498 H         1 <0>         0.1372
     51 H22        -1.3497   -0.1920   -9.7909 H         1 <0>         0.1435
@<TRIPOS>BOND
     1    1    2 1
     2    1   32 1
     3    1   33 1
     4    1   34 1
     5    2    3 1
     6    2    4 1
     7    2   35 1
     8    3   36 1
     9    3   37 1
    10    3   38 1
    11    4    5 1
    12    4    6 1
    13    4   16 1
    14    6    7 1
    15    6   39 1
    16    6   40 1
    17    7   15 1
    18    7    8 1
    19    8   13 ar
    20    8    9 ar
    21    9   10 ar
    22    9   41 1
    23   10   11 ar
    24   10   42 1
    25   11   12 ar
    26   11   43 1
    27   12   13 ar
    28   12   44 1
    29   13   14 1
    30   14   15 2
    31   16   17 am
    32   16   45 1
    33   17   18 2
    34   17   19 1
    35   19   20 1
    36   19   46 1
    37   19   47 1
    38   20   31 2
    39   20   21 1
    40   21   26 ar
    41   21   22 ar
    42   22   23 ar
    43   22   48 1
    44   23   24 ar
    45   23   49 1
    46   24   25 ar
    47   24   50 1
    48   25   26 ar
    49   25   51 1
    50   26   27 1
    51   27   28 2
    52   27   29 am
    53   29   30 1
    54   29   31 1
@<TRIPOS>MOLECULE
ZINC23971248
   44    47     0     0     0
SMALL
USER_CHARGES
N'-[2-[(5-ethyl-[1,2,4]triazino[5,6-b]indol-3-yl)sulfanyl]acetyl]thiophene-2-carbohydrazide
@<TRIPOS>ATOM
      1 C1        -13.3950    2.9537   -1.3555 C.3       1 <0>        -0.1735
      2 C2        -13.0898    3.3596    0.0878 C.3       1 <0>         0.1029
      3 N1        -12.2324    4.5475    0.0900 N.pl3     1 <0>        -0.4731
      4 C3        -12.6921    5.8545    0.0991 C.ar      1 <0>         0.1539
      5 C4        -13.9736    6.3953    0.1086 C.ar      1 <0>        -0.1312
      6 C5        -14.1458    7.7630    0.1161 C.ar      1 <0>        -0.0673
      7 C6        -13.0495    8.6115    0.1142 C.ar      1 <0>        -0.1391
      8 C7        -11.7718    8.0947    0.1053 C.ar      1 <0>        -0.0405
      9 C8        -11.5833    6.7146    0.0977 C.ar      1 <0>        -0.0855
     10 C9        -10.3889    5.8525    0.0870 C.ar      1 <0>         0.0033
     11 C10       -10.8598    4.5231    0.0827 C.ar      1 <0>         0.3713
     12 N2         -9.9678    3.5374    0.0676 N.ar      1 <0>        -0.4809
     13 C11        -8.6744    3.8327    0.0677 C.ar      1 <0>         0.2423
     14 N3         -8.2549    5.0939    0.0719 N.ar      1 <0>        -0.3096
     15 N4         -9.0839    6.0809    0.0813 N.ar      1 <0>        -0.1264
     16 S1         -7.4901    2.5281    0.0548 S.3       1 <0>         0.1303
     17 C12        -5.9591    3.4935    0.0517 C.3       1 <0>        -0.1572
     18 C13        -4.7764    2.5596    0.0408 C.2       1 <0>         0.5378
     19 O1         -4.9514    1.3595    0.0356 O.2       1 <0>        -0.5288
     20 N5         -3.5242    3.0580    0.0367 N.am      1 <0>        -0.5217
     21 N6         -2.4247    2.1898    0.0265 N.am      1 <0>        -0.5273
     22 C14        -1.1725    2.6882    0.0225 C.2       1 <0>         0.6118
     23 O2         -0.9969    3.8925    0.0277 O.2       1 <0>        -0.5290
     24 C15        -0.0221    1.7798    0.0118 C.2       1 <0>        -0.2412
     25 C16         1.3304    2.0829    0.0005 C.2       1 <0>        -0.0592
     26 C17         2.2075    1.0272   -0.0135 C.2       1 <0>        -0.1796
     27 C18         1.7193   -0.2410   -0.0157 C.2       1 <0>        -0.1726
     28 S2          0.0021   -0.0041    0.0020 S.3       1 <0>         0.1461
     29 H1        -14.0388    2.0618   -1.3572 H         1 <0>         0.0825
     30 H2        -12.4546    2.7281   -1.8796 H         1 <0>         0.0641
     31 H3        -13.9111    3.7794   -1.8673 H         1 <0>         0.0640
     32 H4        -14.0302    3.5852    0.6119 H         1 <0>         0.0982
     33 H5        -12.5738    2.5339    0.5996 H         1 <0>         0.1005
     34 H6        -14.8344    5.7431    0.1098 H         1 <0>         0.1334
     35 H7        -15.1433    8.1771    0.1231 H         1 <0>         0.1386
     36 H8        -13.1971    9.6814    0.1201 H         1 <0>         0.1369
     37 H9        -10.9193    8.7578    0.1038 H         1 <0>         0.1378
     38 H10        -5.9302    4.1322   -0.8434 H         1 <0>         0.1375
     39 H11        -5.9208    4.1232    0.9528 H         1 <0>         0.1376
     40 H12        -3.3655    4.1465    0.0414 H         1 <0>         0.4656
     41 H13        -2.5834    1.1013    0.0218 H         1 <0>         0.4581
     42 H14         1.6788    3.1051    0.0024 H         1 <0>         0.1504
     43 H15         3.2732    1.2023   -0.0224 H         1 <0>         0.1448
     44 H16         2.2682   -1.1711   -0.0262 H         1 <0>         0.1940
@<TRIPOS>BOND
     1    1    2 1
     2    1   29 1
     3    1   30 1
     4    1   31 1
     5    2    3 1
     6    2   32 1
     7    2   33 1
     8    3   11 1
     9    3    4 1
    10    4    9 ar
    11    4    5 ar
    12    5    6 ar
    13    5   34 1
    14    6    7 ar
    15    6   35 1
    16    7    8 ar
    17    7   36 1
    18    8    9 ar
    19    8   37 1
    20    9   10 1
    21   10   15 ar
    22   10   11 ar
    23   11   12 ar
    24   12   13 ar
    25   13   14 ar
    26   13   16 1
    27   14   15 ar
    28   16   17 1
    29   17   18 1
    30   17   38 1
    31   17   39 1
    32   18   19 2
    33   18   20 am
    34   20   21 1
    35   20   40 1
    36   21   22 am
    37   21   41 1
    38   22   23 2
    39   22   24 1
    40   24   28 1
    41   24   25 2
    42   25   26 1
    43   25   42 1
    44   26   27 2
    45   26   43 1
    46   27   28 1
    47   27   44 1
@<TRIPOS>MOLECULE
ZINC36537564
   51    52     0     0     0
SMALL
USER_CHARGES

@<TRIPOS>ATOM
      1 C1          0.3968    1.2594    0.5377 C.3       1 <0>        -0.1653
      2 C2          0.4262   -0.2608    0.3669 C.3       1 <0>         0.1696
      3 C3          1.2915   -0.8809    1.4658 C.3       1 <0>        -0.1638
      4 C4         -0.9973   -0.8127    0.4662 C.3       1 <0>        -0.1571
      5 N1          0.9888   -0.5941   -0.9441 N.am      1 <0>        -0.7184
      6 C5          2.2409   -0.2069   -1.2582 C.2       1 <0>         0.5136
      7 O1          2.8691    0.4934   -0.4928 O.2       1 <0>        -0.5214
      8 C6          2.8604   -0.6441   -2.5606 C.3       1 <0>         0.1757
      9 H1          2.8151   -1.7304   -2.6379 H         1 <0>         0.1328
     10 C7          2.1044   -0.0267   -3.7088 C.ar      1 <0>        -0.1360
     11 C8          1.3016    1.0771   -3.4941 C.ar      1 <0>        -0.0887
     12 C9          0.6074    1.6436   -4.5469 C.ar      1 <0>        -0.1270
     13 C10         0.7148    1.1076   -5.8171 C.ar      1 <0>        -0.0882
     14 C11         1.5164    0.0045   -6.0370 C.ar      1 <0>        -0.1484
     15 C12         2.2183   -0.5627   -4.9830 C.ar      1 <0>         0.1370
     16 O2          3.0120   -1.6447   -5.1979 O.3       1 <0>        -0.4881
     17 N2          4.2587   -0.2093   -2.6065 N.am      1 <0>        -0.5787
     18 C13         4.5809    1.2196   -2.6332 C.3       1 <0>         0.0745
     19 C14         5.2485   -1.1237   -2.6243 C.2       1 <0>         0.5723
     20 O3          4.9820   -2.3063   -2.7137 O.2       1 <0>        -0.5158
     21 C15         6.6587   -0.6885   -2.5349 C.ar      1 <0>        -0.1261
     22 C16         7.0042    0.4120   -1.7487 C.ar      1 <0>        -0.0428
     23 C17         8.3217    0.8126   -1.6693 C.ar      1 <0>        -0.1213
     24 C18         9.3000    0.1263   -2.3672 C.ar      1 <0>        -0.0329
     25 C19         8.9642   -0.9648   -3.1484 C.ar      1 <0>        -0.0555
     26 C20         7.6509   -1.3797   -3.2316 C.ar      1 <0>        -0.0011
     27 N3         10.0171   -1.6927   -3.8919 N.pl3     1 <0>         0.0325
     28 O4         11.1689   -1.3334   -3.8159 O.2       1 <0>        -0.1523
     29 O5          9.7251   -2.6464   -4.5750 O.3       1 <0>        -0.1510
     30 H2          1.4110    1.6526    0.4669 H         1 <0>         0.0807
     31 H3         -0.2196    1.7012   -0.2452 H         1 <0>         0.0539
     32 H4         -0.0217    1.5074    1.5131 H         1 <0>         0.0639
     33 H5          0.8729   -0.6329    2.4412 H         1 <0>         0.0658
     34 H6          1.3124   -1.9639    1.3441 H         1 <0>         0.0552
     35 H7          2.3056   -0.4877    1.3950 H         1 <0>         0.0740
     36 H8         -1.6138   -0.3709   -0.3167 H         1 <0>         0.0632
     37 H9         -0.9764   -1.8957    0.3445 H         1 <0>         0.0630
     38 H10        -1.4159   -0.5647    1.4416 H         1 <0>         0.0757
     39 H11         0.4601   -1.0934   -1.5860 H         1 <0>         0.4010
     40 H12         1.2160    1.4975   -2.5030 H         1 <0>         0.1278
     41 H13        -0.0202    2.5059   -4.3769 H         1 <0>         0.1293
     42 H14         0.1712    1.5517   -6.6379 H         1 <0>         0.1307
     43 H15         1.5999   -0.4138   -7.0292 H         1 <0>         0.1334
     44 H16         2.5415   -2.4891   -5.1718 H         1 <0>         0.3942
     45 H17         4.7712    1.5682   -1.6181 H         1 <0>         0.0749
     46 H18         5.4685    1.3806   -3.2450 H         1 <0>         0.0711
     47 H19         3.7427    1.7733   -3.0563 H         1 <0>         0.0762
     48 H20         6.2415    0.9489   -1.2041 H         1 <0>         0.1587
     49 H21         8.5904    1.6639   -1.0614 H         1 <0>         0.1565
     50 H22        10.3301    0.4442   -2.3019 H         1 <0>         0.1596
     51 H23         7.3907   -2.2344   -3.8383 H         1 <0>         0.1629
@<TRIPOS>BOND
     1    1    2 1
     2    1   30 1
     3    1   31 1
     4    1   32 1
     5    2    3 1
     6    2    4 1
     7    2    5 1
     8    3   33 1
     9    3   34 1
    10    3   35 1
    11    4   36 1
    12    4   37 1
    13    4   38 1
    14    5    6 am
    15    5   39 1
    16    6    7 2
    17    6    8 1
    18    8    9 1
    19    8   10 1
    20    8   17 1
    21   10   15 ar
    22   10   11 ar
    23   11   12 ar
    24   11   40 1
    25   12   13 ar
    26   12   41 1
    27   13   14 ar
    28   13   42 1
    29   14   15 ar
    30   14   43 1
    31   15   16 1
    32   16   44 1
    33   17   18 1
    34   17   19 am
    35   18   45 1
    36   18   46 1
    37   18   47 1
    38   19   20 2
    39   19   21 1
    40   21   26 ar
    41   21   22 ar
    42   22   23 ar
    43   22   48 1
    44   23   24 ar
    45   23   49 1
    46   24   25 ar
    47   24   50 1
    48   25   26 ar
    49   25   27 1
    50   26   51 1
    51   27   28 2
    52   27   29 1
@<TRIPOS>MOLECULE
ZINC51712733
   61    62     0     0     0
SMALL
USER_CHARGES

@<TRIPOS>ATOM
      1 C1         -0.0017    1.5266   -0.0176 C.3       1 <0>        -0.1540
      2 C2          0.0160   -0.0033   -0.0209 C.3       1 <0>        -0.1247
      3 C3          0.7291   -0.5023   -1.2792 C.3       1 <0>        -0.1287
      4 C4          0.7468   -2.0322   -1.2825 C.3       1 <0>         0.1395
      5 H1          1.1957   -2.3924   -0.3568 H         1 <0>         0.0886
      6 C5          1.5668   -2.5302   -2.4744 C.3       1 <0>        -0.1644
      7 N1         -0.6247   -2.5362   -1.3886 N.am      1 <0>        -0.7237
      8 C6         -0.9299   -3.7628   -0.9209 C.2       1 <0>         0.5222
      9 O1         -0.0692   -4.4494   -0.4122 O.2       1 <0>        -0.5338
     10 C7         -2.3407   -4.2813   -1.0300 C.3       1 <0>        -0.1236
     11 H2         -3.0150   -3.6180   -0.4883 H         1 <0>         0.1016
     12 C8         -2.4161   -5.6872   -0.4301 C.3       1 <0>        -0.0994
     13 C9         -3.8552   -6.2016   -0.5107 C.3       1 <0>        -0.1357
     14 C10        -4.2840   -6.2790   -1.9793 C.3       1 <0>         0.1094
     15 N2         -4.0773   -4.9645   -2.6023 N.am      1 <0>        -0.6275
     16 C11        -2.7527   -4.3362   -2.5045 C.3       1 <0>         0.1416
     17 C12        -5.0837   -4.3463   -3.2514 C.2       1 <0>         0.7106
     18 O2         -4.9289   -3.2191   -3.6801 O.2       1 <0>        -0.5853
     19 N3         -6.2618   -4.9775   -3.4252 N.am      1 <0>        -0.7420
     20 C13        -7.3179   -4.3506   -4.2239 C.3       1 <0>         0.1635
     21 C14        -8.1252   -3.3955   -3.3418 C.3       1 <0>        -0.1455
     22 C15        -9.2064   -2.7160   -4.1880 C.3       1 <0>         0.1297
     23 N4        -10.0109   -3.7527   -4.8487 N.am      1 <0>        -0.5956
     24 C16        -9.3248   -4.7764   -5.6488 C.3       1 <0>         0.1164
     25 C17        -8.2424   -5.4328   -4.7862 C.3       1 <0>        -0.1438
     26 C18       -11.3527   -3.7648   -4.7229 C.2       1 <0>         0.6486
     27 O3        -11.9083   -2.9128   -4.0581 O.2       1 <0>        -0.5685
     28 O4        -12.0776   -4.7208   -5.3339 O.3       1 <0>        -0.3657
     29 C19       -13.4948   -4.6726   -5.1574 C.3       1 <0>         0.0532
     30 H3          1.0216    1.9018   -0.0282 H         1 <0>         0.0546
     31 H4         -0.5297    1.8858   -0.9010 H         1 <0>         0.0544
     32 H5         -0.5098    1.8821    0.8789 H         1 <0>         0.0545
     33 H6          0.5439   -0.3624    0.8625 H         1 <0>         0.0622
     34 H7         -1.0073   -0.3785   -0.0102 H         1 <0>         0.0613
     35 H8          0.2012   -0.1432   -2.1626 H         1 <0>         0.0694
     36 H9          1.7524   -0.1271   -1.2899 H         1 <0>         0.0797
     37 H10         1.1179   -2.1700   -3.4001 H         1 <0>         0.0576
     38 H11         2.5872   -2.1552   -2.3955 H         1 <0>         0.0662
     39 H12         1.5794   -3.6201   -2.4768 H         1 <0>         0.0606
     40 H13        -1.3131   -1.9872   -1.7954 H         1 <0>         0.4010
     41 H14        -1.7598   -6.3555   -0.9875 H         1 <0>         0.0740
     42 H15        -2.1000   -5.6545    0.6126 H         1 <0>         0.0761
     43 H16        -3.9127   -7.1934   -0.0622 H         1 <0>         0.0830
     44 H17        -4.5157   -5.5203    0.0257 H         1 <0>         0.0691
     45 H18        -3.6831   -7.0270   -2.4965 H         1 <0>         0.0740
     46 H19        -5.3383   -6.5496   -2.0384 H         1 <0>         0.0781
     47 H20        -2.7964   -3.3252   -2.9095 H         1 <0>         0.0988
     48 H21        -2.0269   -4.9255   -3.0650 H         1 <0>         0.0719
     49 H22        -6.4104   -5.8469   -3.0216 H         1 <0>         0.3958
     50 H23        -6.8690   -3.7933   -5.0461 H         1 <0>         0.0929
     51 H24        -8.5948   -3.9560   -2.5334 H         1 <0>         0.0694
     52 H25        -7.4619   -2.6387   -2.9229 H         1 <0>         0.0882
     53 H26        -9.8463   -2.1107   -3.5460 H         1 <0>         0.1006
     54 H27        -8.7369   -2.0827   -4.9408 H         1 <0>         0.0781
     55 H28       -10.0429   -5.5307   -5.9706 H         1 <0>         0.0996
     56 H29        -8.8650   -4.3112   -6.5207 H         1 <0>         0.0774
     57 H30        -7.6625   -6.1262   -5.3954 H         1 <0>         0.0870
     58 H31        -8.7108   -5.9742   -3.9642 H         1 <0>         0.0748
     59 H32       -13.7321   -4.7580   -4.0970 H         1 <0>         0.0609
     60 H33       -13.8767   -3.7261   -5.5401 H         1 <0>         0.0615
     61 H34       -13.9568   -5.4970   -5.7006 H         1 <0>         0.1043
@<TRIPOS>BOND
     1    1    2 1
     2    1   30 1
     3    1   31 1
     4    1   32 1
     5    2    3 1
     6    2   33 1
     7    2   34 1
     8    3    4 1
     9    3   35 1
    10    3   36 1
    11    4    5 1
    12    4    6 1
    13    4    7 1
    14    6   37 1
    15    6   38 1
    16    6   39 1
    17    7    8 am
    18    7   40 1
    19    8    9 2
    20    8   10 1
    21   10   11 1
    22   10   16 1
    23   10   12 1
    24   12   13 1
    25   12   41 1
    26   12   42 1
    27   13   14 1
    28   13   43 1
    29   13   44 1
    30   14   15 1
    31   14   45 1
    32   14   46 1
    33   15   16 1
    34   15   17 am
    35   16   47 1
    36   16   48 1
    37   17   18 2
    38   17   19 am
    39   19   20 1
    40   19   49 1
    41   20   25 1
    42   20   21 1
    43   20   50 1
    44   21   22 1
    45   21   51 1
    46   21   52 1
    47   22   23 1
    48   22   53 1
    49   22   54 1
    50   23   24 1
    51   23   26 am
    52   24   25 1
    53   24   55 1
    54   24   56 1
    55   25   57 1
    56   25   58 1
    57   26   27 2
    58   26   28 1
    59   28   29 1
    60   29   59 1
    61   29   60 1
    62   29   61 1
@<TRIPOS>MOLECULE
ZINC66925879
   59    62     0     0     0
SMALL
USER_CHARGES

@<TRIPOS>ATOM
      1 C1         -0.0215    1.5309    0.0001 C.3       1 <0>        -0.1214
      2 C2          1.4138    2.0608   -0.0112 C.3       1 <0>        -0.1193
      3 C3          2.1302    1.5662   -1.2693 C.3       1 <0>        -0.1153
      4 C4          2.1513    0.0364   -1.2761 C.3       1 <0>        -0.0705
      5 C5          0.7160   -0.4935   -1.2649 C.3       1 <0>        -0.1191
      6 C6         -0.0004    0.0011   -0.0067 C.3       1 <0>        -0.1181
      7 C7          2.8677   -0.4583   -2.5343 C.3       1 <0>        -0.1391
      8 C8          2.9971   -1.9588   -2.4816 C.2       1 <0>         0.5143
      9 O1          2.5594   -2.5722   -1.5313 O.2       1 <0>        -0.5305
     10 N1          3.5992   -2.6191   -3.4905 N.am      1 <0>        -0.7318
     11 C9          3.7250   -4.0778   -3.4392 C.3       1 <0>         0.1461
     12 C10         2.4439   -4.7192   -3.9771 C.3       1 <0>        -0.1446
     13 C11         2.5653   -6.2438   -3.8899 C.3       1 <0>         0.1324
     14 N2          3.7886   -6.6615   -4.5884 N.am      1 <0>        -0.6257
     15 C12         5.0650   -6.0395   -4.2110 C.3       1 <0>         0.1154
     16 C13         4.9156   -4.5172   -4.2946 C.3       1 <0>        -0.1436
     17 C14         3.7407   -7.5977   -5.5567 C.2       1 <0>         0.7176
     18 O2          2.6957   -8.1710   -5.7970 O.2       1 <0>        -0.5771
     19 N3          4.8512   -7.8985   -6.2588 N.am      1 <0>        -0.7452
     20 C15         4.7756   -8.8337   -7.3839 C.3       1 <0>         0.2274
     21 C16         6.1437   -8.9969   -7.9943 C.2       1 <0>         0.2746
     22 N4          7.0322   -9.8879   -7.6514 N.2       1 <0>        -0.5163
     23 C17         8.1338   -9.7486   -8.3976 C.2       1 <0>         0.2840
     24 N5          7.9582   -8.7618   -9.2288 N.2       1 <0>        -0.3303
     25 O3          6.6541   -8.2557   -8.9857 O.3       1 <0>        -0.0958
     26 C18         9.3758  -10.5957   -8.2930 C.3       1 <0>        -0.0948
     27 C19        10.6024  -10.1529   -9.0932 C.3       1 <0>        -0.1558
     28 C20         9.8027  -11.3801   -9.5353 C.3       1 <0>        -0.1499
     29 H1         -0.5319    1.8833    0.8964 H         1 <0>         0.0596
     30 H2         -0.5486    1.8909   -0.8835 H         1 <0>         0.0599
     31 H3          1.3988    3.1507   -0.0064 H         1 <0>         0.0612
     32 H4          1.9409    1.7008    0.8724 H         1 <0>         0.0617
     33 H5          1.6031    1.9262   -2.1529 H         1 <0>         0.0621
     34 H6          3.1527    1.9437   -1.2773 H         1 <0>         0.0611
     35 H7          2.6784   -0.3237   -0.3926 H         1 <0>         0.0779
     36 H8          0.1889   -0.1335   -2.1484 H         1 <0>         0.0537
     37 H9          0.7310   -1.5834   -1.2697 H         1 <0>         0.0803
     38 H10         0.5267   -0.3589    0.8768 H         1 <0>         0.0613
     39 H11        -1.0229   -0.3764    0.0013 H         1 <0>         0.0595
     40 H12         2.2925   -0.1739   -3.4154 H         1 <0>         0.0931
     41 H13         3.8597   -0.0097   -2.5876 H         1 <0>         0.0930
     42 H14         3.9493   -2.1285   -4.2505 H         1 <0>         0.4001
     43 H15         3.8831   -4.3926   -2.4077 H         1 <0>         0.0921
     44 H16         1.5932   -4.3873   -3.3818 H         1 <0>         0.0841
     45 H17         2.2982   -4.4247   -5.0164 H         1 <0>         0.0697
     46 H18         2.6201   -6.5467   -2.8442 H         1 <0>         0.0727
     47 H19         1.6988   -6.7070   -4.3617 H         1 <0>         0.1004
     48 H20         5.3237   -6.3258   -3.1915 H         1 <0>         0.0792
     49 H21         5.8478   -6.3679   -4.8947 H         1 <0>         0.0794
     50 H22         4.7466   -4.2246   -5.3309 H         1 <0>         0.0756
     51 H23         5.8241   -4.0416   -3.9253 H         1 <0>         0.0850
     52 H24         5.7004   -7.4957   -6.0191 H         1 <0>         0.4005
     53 H25         4.4183   -9.8005   -7.0293 H         1 <0>         0.1218
     54 H26         4.0871   -8.4447   -8.1341 H         1 <0>         0.1105
     55 H27         9.5486  -11.0586   -7.3214 H         1 <0>         0.1431
     56 H28        10.5110   -9.2489   -9.6954 H         1 <0>         0.1055
     57 H29        11.5825  -10.3244   -8.6481 H         1 <0>         0.1132
     58 H30        10.2567  -12.3590   -9.3810 H         1 <0>         0.1145
     59 H31         9.1852  -11.2835  -10.4283 H         1 <0>         0.1004
@<TRIPOS>BOND
     1    1    6 1
     2    1    2 1
     3    1   29 1
     4    1   30 1
     5    2    3 1
     6    2   31 1
     7    2   32 1
     8    3    4 1
     9    3   33 1
    10    3   34 1
    11    4    5 1
    12    4    7 1
    13    4   35 1
    14    5    6 1
    15    5   36 1
    16    5   37 1
    17    6   38 1
    18    6   39 1
    19    7    8 1
    20    7   40 1
    21    7   41 1
    22    8    9 2
    23    8   10 am
    24   10   11 1
    25   10   42 1
    26   11   16 1
    27   11   12 1
    28   11   43 1
    29   12   13 1
    30   12   44 1
    31   12   45 1
    32   13   14 1
    33   13   46 1
    34   13   47 1
    35   14   15 1
    36   14   17 am
    37   15   16 1
    38   15   48 1
    39   15   49 1
    40   16   50 1
    41   16   51 1
    42   17   18 2
    43   17   19 am
    44   19   20 1
    45   19   52 1
    46   20   21 1
    47   20   53 1
    48   20   54 1
    49   21   25 1
    50   21   22 2
    51   22   23 1
    52   23   24 2
    53   23   26 1
    54   24   25 1
    55   26   28 1
    56   26   27 1
    57   26   55 1
    58   27   28 1
    59   27   56 1
    60   27   57 1
    61   28   58 1
    62   28   59 1
@<TRIPOS>MOLECULE
ZINC09468211
   51    54     0     0     0
SMALL
USER_CHARGES
2-(1-cyclopent-2-enyl)-N-[4-(2,5-dioxabicyclo[4.4.0]deca-7,9,11-trien-8-ylsulfonylamino)phenyl]-acetamide
@<TRIPOS>ATOM
      1 C1          5.7729    0.8583   -4.2574 C.ar      1 <0>        -0.1131
      2 C2          5.5486   -0.1688   -3.3626 C.ar      1 <0>        -0.0817
      3 C3          4.4763   -0.1011   -2.4824 C.ar      1 <0>         0.1031
      4 C4          3.6267    0.9973   -2.5065 C.ar      1 <0>        -0.0887
      5 C5          3.8553    2.0273   -3.3970 C.ar      1 <0>        -0.1417
      6 C6          4.9270    1.9592   -4.2772 C.ar      1 <0>         0.1587
      7 N1          5.1552    3.0020   -5.1853 N.am      1 <0>        -0.6787
      8 C7          5.6711    2.7355   -6.4016 C.2       1 <0>         0.5127
      9 O1          5.8503    1.5864   -6.7459 O.2       1 <0>        -0.5094
     10 C8          6.0254    3.8654   -7.3338 C.3       1 <0>        -0.1318
     11 C9          6.5872    3.2941   -8.6372 C.3       1 <0>        -0.0540
     12 H1          7.4206    2.6232   -8.4288 H         1 <0>         0.0913
     13 C10         7.0375    4.4370   -9.5764 C.3       1 <0>        -0.1222
     14 C11         6.6469    3.8677  -10.9601 C.3       1 <0>        -0.1015
     15 C12         5.5375    2.8833  -10.6711 C.2       1 <0>        -0.1734
     16 C13         5.5057    2.5679   -9.4029 C.2       1 <0>        -0.1507
     17 N2          4.2488   -1.1417   -1.5756 N.pl3     1 <0>        -1.0595
     18 S1          5.2282   -1.3151   -0.2515 S.o2      1 <0>         2.6938
     19 O2          6.5656   -1.3072   -0.7317 O.2       1 <0>        -0.9445
     20 O3          4.6977   -2.3927    0.5077 O.2       1 <0>        -0.9499
     21 C14         5.0374    0.1351    0.7310 C.ar      1 <0>        -0.6743
     22 C15         3.9940    0.2247    1.6337 C.ar      1 <0>        -0.0130
     23 C16         3.8398    1.3613    2.4044 C.ar      1 <0>        -0.1346
     24 C17         4.7318    2.4154    2.2745 C.ar      1 <0>         0.1089
     25 C18         5.7825    2.3241    1.3694 C.ar      1 <0>         0.0308
     26 C19         5.9307    1.1811    0.5978 C.ar      1 <0>        -0.0065
     27 O4          6.6740    3.3433    1.2319 O.3       1 <0>        -0.3019
     28 C20         6.2781    4.6186    1.7482 C.3       1 <0>         0.0192
     29 C21         5.6892    4.4082    3.1497 C.3       1 <0>         0.0168
     30 O5          4.5621    3.5319    3.0342 O.3       1 <0>        -0.3012
     31 H2          6.6067    0.8057   -4.9419 H         1 <0>         0.1422
     32 H3          6.2070   -1.0248   -3.3468 H         1 <0>         0.1406
     33 H4          2.7900    1.0479   -1.8254 H         1 <0>         0.1331
     34 H5          3.1974    2.8837   -3.4125 H         1 <0>         0.1310
     35 H6          4.9418    3.9155   -4.9385 H         1 <0>         0.4122
     36 H7          5.1325    4.4522   -7.5493 H         1 <0>         0.0988
     37 H8          6.7744    4.5028   -6.8639 H         1 <0>         0.1005
     38 H9          6.4921    5.3564   -9.3634 H         1 <0>         0.0732
     39 H10         8.1134    4.5982   -9.5085 H         1 <0>         0.0750
     40 H11         6.2873    4.6648  -11.6108 H         1 <0>         0.0701
     41 H12         7.4974    3.3609  -11.4161 H         1 <0>         0.0754
     42 H13         4.8602    2.4905  -11.4150 H         1 <0>         0.1227
     43 H14         4.7999    1.8808   -8.9600 H         1 <0>         0.1246
     44 H15         3.5175   -1.7617   -1.7224 H         1 <0>         0.4261
     45 H16         3.2982   -0.5948    1.7364 H         1 <0>         0.1500
     46 H17         3.0236    1.4291    3.1084 H         1 <0>         0.1468
     47 H18         6.7446    1.1087   -0.1085 H         1 <0>         0.1533
     48 H19         7.1456    5.2759    1.8089 H         1 <0>         0.1278
     49 H20         5.5261    5.0620    1.0956 H         1 <0>         0.0806
     50 H21         6.4400    3.9600    3.8004 H         1 <0>         0.0841
     51 H22         5.3693    5.3654    3.5615 H         1 <0>         0.1287
@<TRIPOS>BOND
     1    1    6 ar
     2    1    2 ar
     3    1   31 1
     4    2    3 ar
     5    2   32 1
     6    3    4 ar
     7    3   17 1
     8    4    5 ar
     9    4   33 1
    10    5    6 ar
    11    5   34 1
    12    6    7 1
    13    7    8 am
    14    7   35 1
    15    8    9 2
    16    8   10 1
    17   10   11 1
    18   10   36 1
    19   10   37 1
    20   11   12 1
    21   11   16 1
    22   11   13 1
    23   13   14 1
    24   13   38 1
    25   13   39 1
    26   14   15 1
    27   14   40 1
    28   14   41 1
    29   15   16 2
    30   15   42 1
    31   16   43 1
    32   17   18 1
    33   17   44 1
    34   18   19 2
    35   18   20 2
    36   18   21 1
    37   21   26 ar
    38   21   22 ar
    39   22   23 ar
    40   22   45 1
    41   23   24 ar
    42   23   46 1
    43   24   30 1
    44   24   25 ar
    45   25   26 ar
    46   25   27 1
    47   26   47 1
    48   27   28 1
    49   28   29 1
    50   28   48 1
    51   28   49 1
    52   29   30 1
    53   29   50 1
    54   29   51 1
@<TRIPOS>MOLECULE
ZINC19221556
   52    55     0     0     0
SMALL
USER_CHARGES
1,5-dimethyl-N-[4-[2-(5-methyl-1H-benzimidazol-2-yl)ethyl]phenyl]pyrazole-4-sulfonamide
@<TRIPOS>ATOM
      1 C1         11.6122   -2.3289   -0.4515 C.3       1 <0>        -0.1136
      2 C2         10.1877   -2.3431   -0.9429 C.ar      1 <0>        -0.0945
      3 C3          9.7729   -3.3373   -1.8178 C.ar      1 <0>        -0.1012
      4 C4          8.4736   -3.3658   -2.2776 C.ar      1 <0>        -0.1090
      5 C5          7.5756   -2.3920   -1.8621 C.ar      1 <0>         0.0319
      6 C6          7.9961   -1.3857   -0.9763 C.ar      1 <0>         0.0493
      7 C7          9.3180   -1.3771   -0.5231 C.ar      1 <0>        -0.0683
      8 N1          6.9240   -0.5831   -0.7519 N.2       1 <0>        -0.4911
      9 C8          5.8988   -1.0260   -1.4194 C.2       1 <0>         0.2982
     10 N2          6.2443   -2.1373   -2.1239 N.pl3     1 <0>        -0.6106
     11 H1          5.6811   -2.7962   -2.8012 H         1 <0>         0.4483
     12 C9          4.5298   -0.3959   -1.4176 C.3       1 <0>        -0.0358
     13 C10         4.0248   -0.2776    0.0218 C.3       1 <0>        -0.0716
     14 C11         2.6558    0.3525    0.0237 C.ar      1 <0>        -0.0931
     15 C12         1.5293   -0.4449   -0.0616 C.ar      1 <0>        -0.0999
     16 C13         0.2733    0.1292   -0.0606 C.ar      1 <0>        -0.1309
     17 C14         0.1423    1.5094    0.0261 C.ar      1 <0>         0.1512
     18 C15         1.2761    2.3075    0.1116 C.ar      1 <0>        -0.1471
     19 C16         2.5291    1.7268    0.1101 C.ar      1 <0>        -0.0883
     20 N3         -1.1263    2.0938    0.0216 N.pl3     1 <0>        -1.0738
     21 S1         -1.4998    3.2706    1.1252 S.o2      1 <0>         2.7248
     22 O1         -0.4790    4.2546    1.0307 O.2       1 <0>        -0.9531
     23 O2         -2.8746    3.5790    0.9405 O.2       1 <0>        -0.9567
     24 C17        -1.3564    2.5482    2.7258 C.2       1 <0>        -0.8192
     25 C18        -0.4369    2.9139    3.7144 C.2       1 <0>         0.1398
     26 N4         -0.6402    2.1567    4.7618 N.2       1 <0>        -0.2885
     27 N5         -1.6903    1.2771    4.4688 N.pl3     1 <0>        -0.3576
     28 C19        -2.1124    1.5376    3.2138 C.2       1 <0>         0.2100
     29 C20        -3.2259    0.8295    2.4860 C.3       1 <0>        -0.1332
     30 C21        -2.2340    0.2547    5.3662 C.3       1 <0>         0.0831
     31 H2         12.1603   -3.1751   -0.8914 H         1 <0>         0.0662
     32 H3         11.6227   -2.4155    0.6450 H         1 <0>         0.0697
     33 H4         12.0934   -1.3857   -0.7494 H         1 <0>         0.0699
     34 H5         10.4727   -4.0940   -2.1405 H         1 <0>         0.1293
     35 H6          8.1559   -4.1419   -2.9582 H         1 <0>         0.1224
     36 H7          9.6512   -0.6082    0.1582 H         1 <0>         0.1274
     37 H8          4.5864    0.6052   -1.8698 H         1 <0>         0.1003
     38 H9          3.8371   -1.0222   -1.9989 H         1 <0>         0.0852
     39 H10         3.9683   -1.2788    0.4740 H         1 <0>         0.0737
     40 H11         4.7175    0.3487    0.6031 H         1 <0>         0.0907
     41 H12         1.6318   -1.5180   -0.1287 H         1 <0>         0.1239
     42 H13        -0.6062   -0.4942   -0.1269 H         1 <0>         0.1255
     43 H14         1.1777    3.3809    0.1795 H         1 <0>         0.1554
     44 H15         3.4109    2.3467    0.1769 H         1 <0>         0.1317
     45 H16        -1.8773    1.7723   -0.7151 H         1 <0>         0.4514
     46 H17         0.3097    3.6896    3.6289 H         1 <0>         0.2000
     47 H18        -3.6548    0.0540    3.1376 H         1 <0>         0.0870
     48 H19        -2.8283    0.3625    1.5729 H         1 <0>         0.0985
     49 H20        -4.0073    1.5552    2.2163 H         1 <0>         0.1130
     50 H21        -3.0515   -0.2799    4.8604 H         1 <0>         0.0985
     51 H22        -2.6187    0.7345    6.2782 H         1 <0>         0.0906
     52 H23        -1.4400   -0.4580    5.6338 H         1 <0>         0.0903
@<TRIPOS>BOND
     1    1    2 1
     2    1   31 1
     3    1   32 1
     4    1   33 1
     5    2    7 ar
     6    2    3 ar
     7    3    4 ar
     8    3   34 1
     9    4    5 ar
    10    4   35 1
    11    5   10 1
    12    5    6 ar
    13    6    7 ar
    14    6    8 1
    15    7   36 1
    16    8    9 2
    17    9   10 1
    18    9   12 1
    19   10   11 1
    20   12   13 1
    21   12   37 1
    22   12   38 1
    23   13   14 1
    24   13   39 1
    25   13   40 1
    26   14   19 ar
    27   14   15 ar
    28   15   16 ar
    29   15   41 1
    30   16   17 ar
    31   16   42 1
    32   17   18 ar
    33   17   20 1
    34   18   19 ar
    35   18   43 1
    36   19   44 1
    37   20   21 1
    38   20   45 1
    39   21   22 2
    40   21   23 2
    41   21   24 1
    42   24   28 2
    43   24   25 1
    44   25   26 2
    45   25   46 1
    46   26   27 1
    47   27   28 1
    48   27   30 1
    49   28   29 1
    50   29   47 1
    51   29   48 1
    52   29   49 1
    53   30   50 1
    54   30   51 1
    55   30   52 1
@<TRIPOS>MOLECULE
ZINC32577579
   39    40     0     0     0
SMALL
USER_CHARGES
2,5-dichloro-N-[(4-hydroxy-3,5-dimethoxy-phenyl)methyleneamino]benzenesulfonamide
@<TRIPOS>ATOM
      1 C1         -3.9496   -0.7905    2.4014 C.3       1 <0>         0.0143
      2 O1         -4.1812    0.6176    2.4755 O.3       1 <0>        -0.2955
      3 C2         -3.2427    1.4279    1.9169 C.ar      1 <0>         0.1253
      4 C3         -2.1263    0.8779    1.3123 C.ar      1 <0>        -0.2067
      5 C4         -1.1628    1.7108    0.7388 C.ar      1 <0>        -0.0728
      6 C5         -1.3268    3.0972    0.7825 C.ar      1 <0>        -0.1660
      7 C6         -2.4482    3.6411    1.3834 C.ar      1 <0>         0.0712
      8 C7         -3.4059    2.8090    1.9542 C.ar      1 <0>         0.1246
      9 O2         -4.5046    3.3470    2.5498 O.3       1 <0>        -0.4904
     10 O3         -2.6116    4.9907    1.4211 O.3       1 <0>        -0.3204
     11 C8         -1.5896    5.7851    0.8157 C.3       1 <0>         0.0275
     12 C9          0.0283    1.1277    0.0936 C.2       1 <0>         0.1336
     13 N1          0.0257   -0.1184   -0.2680 N.2       1 <0>        -0.2152
     14 N2         -1.1888   -0.7949   -0.4413 N.pl3     1 <0>        -0.9673
     15 S1         -1.1959   -2.4307   -0.6991 S.o2      1 <0>         2.7068
     16 O4         -2.5575   -2.8373   -0.6903 O.2       1 <0>        -0.9426
     17 O5         -0.3361   -2.6714   -1.8046 O.2       1 <0>        -0.9139
     18 C10        -0.4369   -3.1823    0.7021 C.ar      1 <0>        -0.6684
     19 C11        -1.1779   -4.0012    1.5333 C.ar      1 <0>        -0.0039
     20 C12        -0.5806   -4.5955    2.6305 C.ar      1 <0>        -0.0575
     21 C13         0.7560   -4.3618    2.9018 C.ar      1 <0>        -0.0392
     22 C14         1.4953   -3.5386    2.0741 C.ar      1 <0>        -0.1184
     23 C15         0.8992   -2.9483    0.9736 C.ar      1 <0>         0.0582
     24 Cl1         1.8282   -1.9146   -0.0666 Cl        1 <0>         0.0028
     25 Cl2        -1.5096   -5.6292    3.6707 Cl        1 <0>        -0.0443
     26 H1         -4.7791   -1.3246    2.8879 H         1 <0>         0.1119
     27 H2         -3.0066   -1.0344    2.9125 H         1 <0>         0.0552
     28 H3         -3.8849   -1.0964    1.3468 H         1 <0>         0.0597
     29 H4         -2.0001   -0.1943    1.2837 H         1 <0>         0.1420
     30 H5         -0.5812    3.7439    0.3441 H         1 <0>         0.1432
     31 H6         -4.6347    4.4389    2.5799 H         1 <0>         0.4406
     32 H7         -1.8452    6.8502    0.9165 H         1 <0>         0.1071
     33 H8         -1.5078    5.5269   -0.2504 H         1 <0>         0.0606
     34 H9         -0.6292    5.5896    1.3150 H         1 <0>         0.0608
     35 H10         0.9189    1.7492   -0.0811 H         1 <0>         0.1955
     36 H11        -2.0255   -0.3052   -0.4102 H         1 <0>         0.4099
     37 H12        -2.2221   -4.1803    1.3239 H         1 <0>         0.1626
     38 H13         1.2213   -4.8225    3.7606 H         1 <0>         0.1537
     39 H14         2.5384   -3.3556    2.2862 H         1 <0>         0.1555
@<TRIPOS>BOND
     1    1    2 1
     2    1   26 1
     3    1   27 1
     4    1   28 1
     5    2    3 1
     6    3    8 ar
     7    3    4 ar
     8    4    5 ar
     9    4   29 1
    10    5    6 ar
    11    5   12 1
    12    6    7 ar
    13    6   30 1
    14    7    8 ar
    15    7   10 1
    16    8    9 1
    17    9   31 1
    18   10   11 1
    19   11   32 1
    20   11   33 1
    21   11   34 1
    22   12   13 2
    23   12   35 1
    24   13   14 1
    25   14   15 1
    26   14   36 1
    27   15   16 2
    28   15   17 2
    29   15   18 1
    30   18   23 ar
    31   18   19 ar
    32   19   20 ar
    33   19   37 1
    34   20   21 ar
    35   20   25 1
    36   21   22 ar
    37   21   38 1
    38   22   23 ar
    39   22   39 1
    40   23   24 1
@<TRIPOS>MOLECULE
ZINC46717501
   62    64     0     0     0
SMALL
USER_CHARGES

@<TRIPOS>ATOM
      1 C1          0.5305    2.2059   -0.2472 C.3       1 <0>        -0.1513
      2 C2          0.2099    0.8963    0.4761 C.3       1 <0>        -0.0702
      3 C3          1.1559    0.7182    1.6356 C.2       1 <0>         0.1290
      4 C4          0.9902    1.2455    2.9033 C.2       1 <0>        -0.2114
      5 C5          2.1033    0.8350    3.6718 C.2       1 <0>        -0.0106
      6 C6          2.8957    0.0830    2.8557 C.2       1 <0>        -0.0631
      7 N1          2.2997    0.0161    1.6151 N.pl3     1 <0>        -0.5209
      8 H1          2.6520   -0.4613    0.8477 H         1 <0>         0.4210
      9 C7          4.1638   -0.5510    3.2353 C.2       1 <0>         0.5987
     10 O1          4.5916   -0.4258    4.3674 O.2       1 <0>        -0.4984
     11 N2          4.8543   -1.2719    2.3298 N.am      1 <0>        -0.6657
     12 C8          6.0951   -1.8055    2.6651 C.ar      1 <0>         0.1963
     13 C9          6.3515   -2.2105    3.9686 C.ar      1 <0>        -0.1267
     14 C10         7.5827   -2.7393    4.2989 C.ar      1 <0>        -0.0767
     15 C11         8.5707   -2.8709    3.3361 C.ar      1 <0>        -0.1369
     16 C12         8.3343   -2.4749    2.0377 C.ar      1 <0>        -0.0729
     17 C13         7.0914   -1.9423    1.6869 C.ar      1 <0>        -0.1595
     18 C14         6.8300   -1.5211    0.2976 C.2       1 <0>         0.5610
     19 O2          6.4169   -0.4005    0.0696 O.2       1 <0>        -0.5317
     20 N3          7.0491   -2.3784   -0.7190 N.am      1 <0>        -0.6006
     21 C15         7.6156   -3.7103   -0.4661 C.3       1 <0>         0.0991
     22 C16         6.6955   -4.7641   -1.0905 C.3       1 <0>        -0.1074
     23 H2          7.1524   -5.7490   -0.9940 H         1 <0>         0.0860
     24 C17         6.4873   -4.4405   -2.5717 C.3       1 <0>        -0.1116
     25 C18         5.8160   -3.0719   -2.7071 C.3       1 <0>        -0.1078
     26 H3          4.8624   -3.0806   -2.1793 H         1 <0>         0.0760
     27 C19         6.7204   -2.0012   -2.1004 C.3       1 <0>         0.1144
     28 C20         5.5777   -2.7641   -4.1868 C.3       1 <0>        -0.1467
     29 C21         5.3456   -4.7546   -0.3704 C.3       1 <0>        -0.1471
     30 C22         2.3649    1.1661    5.1185 C.3       1 <0>        -0.1002
     31 C23        -0.1335    2.0774    3.3653 C.2       1 <0>         0.5476
     32 O3         -1.1185    1.5542    3.8482 O.2       1 <0>        -0.4940
     33 O4         -0.0697    3.4188    3.2527 O.3       1 <0>        -0.3452
     34 C24        -1.1958    4.1634    3.7212 C.3       1 <0>         0.0305
     35 H4          1.5557    2.1757   -0.6161 H         1 <0>         0.0592
     36 H5         -0.1538    2.3347   -1.0858 H         1 <0>         0.0690
     37 H6          0.4179    3.0403    0.4451 H         1 <0>         0.0670
     38 H7         -0.8154    0.9266    0.8450 H         1 <0>         0.0938
     39 H8          0.3224    0.0620   -0.2162 H         1 <0>         0.0833
     40 H9          4.4864   -1.4190    1.4444 H         1 <0>         0.4043
     41 H10         5.5867   -2.1112    4.7247 H         1 <0>         0.1513
     42 H11         7.7776   -3.0521    5.3141 H         1 <0>         0.1334
     43 H12         9.5310   -3.2856    3.6050 H         1 <0>         0.1321
     44 H13         9.1078   -2.5796    1.2912 H         1 <0>         0.1318
     45 H14         8.6062   -3.7775   -0.9159 H         1 <0>         0.0736
     46 H15         7.6877   -3.8788    0.6084 H         1 <0>         0.0967
     47 H16         7.4520   -4.4235   -3.0788 H         1 <0>         0.0666
     48 H17         5.8529   -5.2025   -3.0242 H         1 <0>         0.0683
     49 H18         6.2021   -1.0423   -2.1038 H         1 <0>         0.0925
     50 H19         7.6363   -1.9259   -2.6864 H         1 <0>         0.0703
     51 H20         4.9322   -3.5294   -4.6178 H         1 <0>         0.0603
     52 H21         5.0996   -1.7893   -4.2828 H         1 <0>         0.0578
     53 H22         6.5317   -2.7543   -4.7140 H         1 <0>         0.0581
     54 H23         4.8887   -3.7698   -0.4681 H         1 <0>         0.0528
     55 H24         4.6914   -5.5045   -0.8149 H         1 <0>         0.0580
     56 H25         5.4952   -4.9826    0.6850 H         1 <0>         0.0549
     57 H26         1.9188    0.4002    5.7529 H         1 <0>         0.0778
     58 H27         3.4400    1.2026    5.2942 H         1 <0>         0.0913
     59 H28         1.9250    2.1350    5.3548 H         1 <0>         0.0653
     60 H29        -2.0852    3.8649    3.1662 H         1 <0>         0.0615
     61 H30        -1.3463    3.9654    4.7824 H         1 <0>         0.0622
     62 H31        -1.0149    5.2279    3.5722 H         1 <0>         0.1039
@<TRIPOS>BOND
     1    1    2 1
     2    1   35 1
     3    1   36 1
     4    1   37 1
     5    2    3 1
     6    2   38 1
     7    2   39 1
     8    3    7 1
     9    3    4 2
    10    4    5 1
    11    4   31 1
    12    5    6 2
    13    5   30 1
    14    6    7 1
    15    6    9 1
    16    7    8 1
    17    9   10 2
    18    9   11 am
    19   11   12 1
    20   11   40 1
    21   12   17 ar
    22   12   13 ar
    23   13   14 ar
    24   13   41 1
    25   14   15 ar
    26   14   42 1
    27   15   16 ar
    28   15   43 1
    29   16   17 ar
    30   16   44 1
    31   17   18 1
    32   18   19 2
    33   18   20 am
    34   20   27 1
    35   20   21 1
    36   21   22 1
    37   21   45 1
    38   21   46 1
    39   22   23 1
    40   22   24 1
    41   22   29 1
    42   24   25 1
    43   24   47 1
    44   24   48 1
    45   25   26 1
    46   25   27 1
    47   25   28 1
    48   27   49 1
    49   27   50 1
    50   28   51 1
    51   28   52 1
    52   28   53 1
    53   29   54 1
    54   29   55 1
    55   29   56 1
    56   30   57 1
    57   30   58 1
    58   30   59 1
    59   31   32 2
    60   31   33 1
    61   33   34 1
    62   34   60 1
    63   34   61 1
    64   34   62 1
@<TRIPOS>MOLECULE
ZINC64605213
   54    56     0     0     0
SMALL
USER_CHARGES

@<TRIPOS>ATOM
      1 C1         -1.2367    1.1969    0.1771 C.3       1 <0>        -0.1177
      2 C2         -0.5542   -0.1432    0.0800 C.ar      1 <0>        -0.0793
      3 C3         -0.5339   -0.8229   -1.1223 C.ar      1 <0>        -0.1376
      4 C4          0.0930   -2.0541   -1.2121 C.ar      1 <0>         0.0911
      5 C5          0.7005   -2.6069   -0.0969 C.ar      1 <0>        -0.1406
      6 C6          0.6824   -1.9306    1.1069 C.ar      1 <0>        -0.0866
      7 C7          0.0595   -0.6927    1.1975 C.ar      1 <0>         0.1325
      8 N1          0.0455   -0.0024    2.4157 N.am      1 <0>        -0.6664
      9 C8         -0.0398   -0.6837    3.5754 C.2       1 <0>         0.5044
     10 O1         -0.0231   -1.8965    3.5689 O.2       1 <0>        -0.5041
     11 C9         -0.1560    0.0612    4.8802 C.3       1 <0>         0.1127
     12 N2         -0.2331   -0.8979    5.9850 N.am      1 <0>        -0.3922
     13 C10         0.8965   -1.3173    6.5894 C.2       1 <0>         0.5111
     14 O2          1.9824   -0.9010    6.2197 O.2       1 <0>        -0.5070
     15 C11         0.8136   -2.2449    7.6578 C.2       1 <0>         0.1147
     16 C12        -0.4120   -2.6962    8.0541 C.2       1 <0>        -0.1019
     17 C13        -1.5710   -2.2344    7.3974 C.2       1 <0>         0.1632
     18 N3         -1.4794   -1.3700    6.4116 N.2       1 <0>        -0.2112
     19 C14        -2.9046   -2.7237    7.8260 C.ar      1 <0>        -0.0436
     20 C15        -3.0114   -3.6319    8.8775 C.ar      1 <0>        -0.0933
     21 C16        -4.2544   -4.0834    9.2723 C.ar      1 <0>        -0.1193
     22 C17        -5.3928   -3.6365    8.6260 C.ar      1 <0>        -0.1009
     23 C18        -5.2926   -2.7350    7.5817 C.ar      1 <0>        -0.1210
     24 C19        -4.0551   -2.2724    7.1823 C.ar      1 <0>        -0.0779
     25 N4          1.9726   -2.6924    8.2972 N.am      1 <0>        -0.6691
     26 C20         2.7898   -1.8103    8.9060 C.2       1 <0>         0.5234
     27 O3          2.5665   -0.6209    8.8249 O.2       1 <0>        -0.5038
     28 C21         3.9808   -2.3018    9.6876 C.3       1 <0>        -0.1097
     29 C22         4.7355   -1.1063   10.2726 C.3       1 <0>        -0.1350
     30 C23         3.5060   -3.2104   10.8233 C.3       1 <0>        -0.1464
     31 F1          0.1118   -2.7174   -2.3889 F         1 <0>        -0.1382
     32 H1         -0.5214    1.9865   -0.0532 H         1 <0>         0.0778
     33 H2         -2.0626    1.2363   -0.5331 H         1 <0>         0.0766
     34 H3         -1.6197    1.3372    1.1879 H         1 <0>         0.0686
     35 H4         -1.0076   -0.3939   -1.9929 H         1 <0>         0.1408
     36 H5          1.1883   -3.5678   -0.1688 H         1 <0>         0.1391
     37 H6          1.1563   -2.3620    1.9762 H         1 <0>         0.1476
     38 H7          0.0972    0.9662    2.4249 H         1 <0>         0.4146
     39 H8          0.7176    0.6993    5.0134 H         1 <0>         0.1364
     40 H9         -1.0563    0.6756    4.8689 H         1 <0>         0.1333
     41 H10        -0.4935   -3.4035    8.8662 H         1 <0>         0.1567
     42 H11        -2.1231   -3.9821    9.3823 H         1 <0>         0.1285
     43 H12        -4.3384   -4.7873   10.0871 H         1 <0>         0.1303
     44 H13        -6.3634   -3.9929    8.9378 H         1 <0>         0.1274
     45 H14        -6.1847   -2.3893    7.0806 H         1 <0>         0.1293
     46 H15        -3.9783   -1.5654    6.3695 H         1 <0>         0.1341
     47 H16         2.1891   -3.6379    8.3030 H         1 <0>         0.4165
     48 H17         4.6430   -2.8616    9.0271 H         1 <0>         0.1024
     49 H18         4.0734   -0.5465   10.9331 H         1 <0>         0.0633
     50 H19         5.5970   -1.4618   10.8379 H         1 <0>         0.0661
     51 H20         5.0739   -0.4590    9.4635 H         1 <0>         0.0640
     52 H21         2.9683   -4.0621   10.4065 H         1 <0>         0.0601
     53 H22         4.3675   -3.5659   11.3886 H         1 <0>         0.0733
     54 H23         2.8438   -2.6506   11.4838 H         1 <0>         0.0631
@<TRIPOS>BOND
     1    1    2 1
     2    1   32 1
     3    1   33 1
     4    1   34 1
     5    2    7 ar
     6    2    3 ar
     7    3    4 ar
     8    3   35 1
     9    4    5 ar
    10    4   31 1
    11    5    6 ar
    12    5   36 1
    13    6    7 ar
    14    6   37 1
    15    7    8 1
    16    8    9 am
    17    8   38 1
    18    9   10 2
    19    9   11 1
    20   11   12 1
    21   11   39 1
    22   11   40 1
    23   12   18 1
    24   12   13 am
    25   13   14 2
    26   13   15 1
    27   15   16 2
    28   15   25 1
    29   16   17 1
    30   16   41 1
    31   17   18 2
    32   17   19 1
    33   19   24 ar
    34   19   20 ar
    35   20   21 ar
    36   20   42 1
    37   21   22 ar
    38   21   43 1
    39   22   23 ar
    40   22   44 1
    41   23   24 ar
    42   23   45 1
    43   24   46 1
    44   25   26 am
    45   25   47 1
    46   26   27 2
    47   26   28 1
    48   28   29 1
    49   28   30 1
    50   28   48 1
    51   29   49 1
    52   29   50 1
    53   29   51 1
    54   30   52 1
    55   30   53 1
    56   30   54 1
@<TRIPOS>MOLECULE
ZINC11902989
   52    55     0     0     0
SMALL
USER_CHARGES
ethyl 2-[[2-[(4-oxo-3,5,6,7-tetrahydrocyclopenta[d]pyrimidin-2-yl)sulfanyl]acetyl]amino]-4,5,6,7-tetrahydrobenzothiophene-3-carboxylate
@<TRIPOS>ATOM
      1 C1          4.0885    1.3351   -6.0166 C.3       1 <0>        -0.1533
      2 C2          2.8273    0.4827   -5.8631 C.3       1 <0>         0.0580
      3 O1          1.7146    1.3304   -5.4739 O.3       1 <0>        -0.3498
      4 C3          0.5201    0.7297   -5.2958 C.2       1 <0>         0.5305
      5 O2          0.4122   -0.4705   -5.4614 O.2       1 <0>        -0.4929
      6 C4         -0.6468    1.5224   -4.9030 C.2       1 <0>        -0.1989
      7 C5         -1.5243    2.1165   -5.8976 C.2       1 <0>        -0.0633
      8 C6         -2.5585    2.8285   -5.4005 C.2       1 <0>        -0.2016
      9 S1         -2.3853    2.7119   -3.6425 S.3       1 <0>         0.2480
     10 C7         -0.9588    1.7315   -3.5660 C.2       1 <0>         0.0730
     11 N1         -0.2884    1.2723   -2.4431 N.am      1 <0>        -0.6119
     12 C8         -0.7416    1.5850   -1.2129 C.2       1 <0>         0.5295
     13 O3         -1.7359    2.2682   -1.0884 O.2       1 <0>        -0.4814
     14 C9         -0.0127    1.0858    0.0080 C.3       1 <0>        -0.1432
     15 S2         -0.8599    1.6695    1.4972 S.3       1 <0>         0.0963
     16 C10         0.1742    0.9607    2.7352 C.2       1 <0>         0.3504
     17 N2         -0.1195    1.1640    4.0494 N.am      1 <0>        -0.6128
     18 H1         -0.8915    1.6952    4.3002 H         1 <0>         0.4238
     19 C11         0.6699    0.6226    5.0009 C.2       1 <0>         0.5417
     20 O4          0.4232    0.7938    6.1834 O.2       1 <0>        -0.5278
     21 C12         1.7824   -0.1423    4.6053 C.2       1 <0>        -0.2672
     22 C13         2.0297   -0.3133    3.2748 C.2       1 <0>         0.1724
     23 N3          1.2155    0.2384    2.3736 N.2       1 <0>        -0.5364
     24 C14         3.2677   -1.1638    3.0853 C.3       1 <0>        -0.0709
     25 C15         3.4972   -1.8506    4.4489 C.3       1 <0>        -0.1187
     26 C16         2.8284   -0.8608    5.4274 C.3       1 <0>        -0.0541
     27 C17        -3.6129    3.5536   -6.1787 C.3       1 <0>        -0.0369
     28 C18        -3.1370    3.6839   -7.6329 C.3       1 <0>        -0.1152
     29 C19        -2.6308    2.3197   -8.1104 C.3       1 <0>        -0.1192
     30 C20        -1.3205    1.9738   -7.4009 C.3       1 <0>        -0.0637
     31 H2          4.3164    1.8210   -5.0679 H         1 <0>         0.0669
     32 H3          4.9238    0.6987   -6.3088 H         1 <0>         0.0823
     33 H4          3.9239    2.0929   -6.7826 H         1 <0>         0.0682
     34 H5          2.9919   -0.2751   -5.0971 H         1 <0>         0.0708
     35 H6          2.5994   -0.0032   -6.8118 H         1 <0>         0.0724
     36 H7          0.5068    0.7259   -2.5426 H         1 <0>         0.4232
     37 H8          0.0021   -0.0041    0.0020 H         1 <0>         0.1427
     38 H9          1.0099    1.4631    0.0003 H         1 <0>         0.1427
     39 H10         3.0988   -1.9104    2.3093 H         1 <0>         0.0903
     40 H11         4.1214   -0.5372    2.8271 H         1 <0>         0.0973
     41 H12         3.0044   -2.8223    4.4821 H         1 <0>         0.0783
     42 H13         4.5621   -1.9498    4.6594 H         1 <0>         0.0882
     43 H14         3.5627   -0.1516    5.8095 H         1 <0>         0.0821
     44 H15         2.3586   -1.4005    6.2497 H         1 <0>         0.0800
     45 H16        -4.5455    2.9904   -6.1467 H         1 <0>         0.0852
     46 H17        -3.7677    4.5447   -5.7523 H         1 <0>         0.0839
     47 H18        -3.9672    4.0060   -8.2615 H         1 <0>         0.0758
     48 H19        -2.3308    4.4153   -7.6894 H         1 <0>         0.0697
     49 H20        -3.3767    1.5576   -7.8851 H         1 <0>         0.0684
     50 H21        -2.4607    2.3530   -9.1866 H         1 <0>         0.0722
     51 H22        -1.0377    0.9476   -7.6356 H         1 <0>         0.0739
     52 H23        -0.5354    2.6539   -7.7315 H         1 <0>         0.0811
@<TRIPOS>BOND
     1    1    2 1
     2    1   31 1
     3    1   32 1
     4    1   33 1
     5    2    3 1
     6    2   34 1
     7    2   35 1
     8    3    4 1
     9    4    5 2
    10    4    6 1
    11    6   10 2
    12    6    7 1
    13    7   30 1
    14    7    8 2
    15    8    9 1
    16    8   27 1
    17    9   10 1
    18   10   11 1
    19   11   12 am
    20   11   36 1
    21   12   13 2
    22   12   14 1
    23   14   15 1
    24   14   37 1
    25   14   38 1
    26   15   16 1
    27   16   23 2
    28   16   17 1
    29   17   18 1
    30   17   19 am
    31   19   20 2
    32   19   21 1
    33   21   26 1
    34   21   22 2
    35   22   23 1
    36   22   24 1
    37   24   25 1
    38   24   39 1
    39   24   40 1
    40   25   26 1
    41   25   41 1
    42   25   42 1
    43   26   43 1
    44   26   44 1
    45   27   28 1
    46   27   45 1
    47   27   46 1
    48   28   29 1
    49   28   47 1
    50   28   48 1
    51   29   30 1
    52   29   49 1
    53   29   50 1
    54   30   51 1
    55   30   52 1
@<TRIPOS>MOLECULE
ZINC03039851
   45    47     0     0     0
SMALL
USER_CHARGES
N'-(1,3-benzodioxol-5-ylmethyleneamino)-N-(3-bromophenyl)pentanediamide
@<TRIPOS>ATOM
      1 C1         -8.4422   11.5571   -0.7995 C.ar      1 <0>        -0.0943
      2 C2         -7.1361   11.1180   -0.7008 C.ar      1 <0>        -0.1310
      3 C3         -6.8494    9.9439   -0.0170 C.ar      1 <0>         0.1484
      4 C4         -7.8760    9.2201    0.5753 C.ar      1 <0>        -0.0947
      5 C5         -9.1799    9.6672    0.4776 C.ar      1 <0>        -0.0728
      6 C6         -9.4625   10.8350   -0.2091 C.ar      1 <0>        -0.1061
      7 Br1       -10.5790    8.6828    1.2835 Br        1 <0>        -0.0428
      8 N1         -5.5280    9.4940    0.0799 N.am      1 <0>        -0.6760
      9 C7         -5.2636    8.1724    0.0697 C.2       1 <0>         0.5107
     10 O1         -6.1746    7.3718    0.0611 O.2       1 <0>        -0.5083
     11 C8         -3.8361    7.6896    0.0689 C.3       1 <0>        -0.1382
     12 C9         -3.8151    6.1598    0.0564 C.3       1 <0>        -0.0933
     13 C10        -2.3658    5.6695    0.0556 C.3       1 <0>        -0.1338
     14 C11        -2.3452    4.1627    0.0433 C.2       1 <0>         0.5278
     15 O2         -3.3874    3.5419    0.0360 O.2       1 <0>        -0.4935
     16 N2         -1.1689    3.5048    0.0406 N.am      1 <0>        -0.5860
     17 N3         -1.1498    2.1040    0.0292 N.2       1 <0>        -0.2258
     18 C12        -0.0170    1.4705    0.0265 C.2       1 <0>         0.1138
     19 C13         0.0031   -0.0035    0.0145 C.ar      1 <0>        -0.0491
     20 C14        -1.1960   -0.7206    0.0176 C.ar      1 <0>        -0.0641
     21 C15        -1.1746   -2.0990    0.0009 C.ar      1 <0>        -0.1047
     22 C16         0.0349   -2.7790   -0.0081 C.ar      1 <0>         0.0507
     23 C17         1.2356   -2.0695   -0.0054 C.ar      1 <0>         0.0267
     24 C18         1.2214   -0.6874    0.0058 C.ar      1 <0>        -0.0715
     25 O3          2.2690   -2.9618   -0.0154 O.3       1 <0>        -0.3070
     26 C19         1.6929   -4.2121   -0.4370 C.3       1 <0>         0.2127
     27 O4          0.3186   -4.1141   -0.0194 O.3       1 <0>        -0.3063
     28 H1         -8.6659   12.4681   -1.3347 H         1 <0>         0.1373
     29 H2         -6.3392   11.6852   -1.1585 H         1 <0>         0.1328
     30 H3         -7.6556    8.3087    1.1112 H         1 <0>         0.1502
     31 H4        -10.4821   11.1830   -0.2836 H         1 <0>         0.1349
     32 H5         -4.8022   10.1332    0.1544 H         1 <0>         0.4139
     33 H6         -3.3292    8.0526    0.9629 H         1 <0>         0.1008
     34 H7         -3.3253    8.0671   -0.8170 H         1 <0>         0.1010
     35 H8         -4.3220    5.7967   -0.8377 H         1 <0>         0.0831
     36 H9         -4.3259    5.7822    0.9422 H         1 <0>         0.0832
     37 H10        -1.8590    6.0326    0.9497 H         1 <0>         0.1008
     38 H11        -1.8550    6.0471   -0.8302 H         1 <0>         0.1007
     39 H12        -0.3356    4.0013    0.0464 H         1 <0>         0.3875
     40 H13         0.9108    2.0233    0.0285 H         1 <0>         0.1246
     41 H14        -2.1395   -0.1952    0.0291 H         1 <0>         0.1515
     42 H15        -2.1026   -2.6516   -0.0009 H         1 <0>         0.1419
     43 H16         2.1506   -0.1370    0.0075 H         1 <0>         0.1422
     44 H17         1.7575   -4.3177   -1.5199 H         1 <0>         0.0875
     45 H18         2.1855   -5.0477    0.0603 H         1 <0>         0.1346
@<TRIPOS>BOND
     1    1    6 ar
     2    1    2 ar
     3    1   28 1
     4    2    3 ar
     5    2   29 1
     6    3    4 ar
     7    3    8 1
     8    4    5 ar
     9    4   30 1
    10    5    6 ar
    11    5    7 1
    12    6   31 1
    13    8    9 am
    14    8   32 1
    15    9   10 2
    16    9   11 1
    17   11   12 1
    18   11   33 1
    19   11   34 1
    20   12   13 1
    21   12   35 1
    22   12   36 1
    23   13   14 1
    24   13   37 1
    25   13   38 1
    26   14   15 2
    27   14   16 am
    28   16   17 1
    29   16   39 1
    30   17   18 2
    31   18   19 1
    32   18   40 1
    33   19   24 ar
    34   19   20 ar
    35   20   21 ar
    36   20   41 1
    37   21   22 ar
    38   21   42 1
    39   22   27 1
    40   22   23 ar
    41   23   24 ar
    42   23   25 1
    43   24   43 1
    44   25   26 1
    45   26   27 1
    46   26   44 1
    47   26   45 1
@<TRIPOS>MOLECULE
ZINC22909474
   59    61     0     0     0
SMALL
USER_CHARGES
2-[[4-[(2R,6S)-2,6-dimethylmorpholin-4-yl]sulfonylphenyl]amino]-N-(2,4-dimethylphenyl)acetamide
@<TRIPOS>ATOM
      1 C1         -6.5466    5.3992   12.5446 C.3       1 <0>        -0.1168
      2 C2         -6.2201    5.0827   11.1078 C.ar      1 <0>        -0.0976
      3 C3         -5.0855    4.3530   10.8026 C.ar      1 <0>        -0.1048
      4 C4         -4.7836    4.0613    9.4871 C.ar      1 <0>        -0.1246
      5 C5         -5.6206    4.5016    8.4699 C.ar      1 <0>         0.1413
      6 C6         -6.7558    5.2389    8.7793 C.ar      1 <0>        -0.1108
      7 C7         -7.0551    5.5228   10.0976 C.ar      1 <0>        -0.1012
      8 C8         -7.6632    5.7243    7.6783 C.3       1 <0>        -0.1170
      9 N1         -5.3175    4.2077    7.1359 N.am      1 <0>        -0.6752
     10 C9         -4.0426    3.9648    6.7722 C.2       1 <0>         0.5124
     11 O1         -3.1461    4.0987    7.5781 O.2       1 <0>        -0.5164
     12 C10        -3.7311    3.5268    5.3643 C.3       1 <0>         0.1031
     13 N2         -2.2864    3.3292    5.2228 N.pl3     1 <0>        -0.7381
     14 C11        -1.7542    2.9198    3.9981 C.ar      1 <0>         0.2766
     15 C12        -0.3846    2.7319    3.8621 C.ar      1 <0>        -0.2114
     16 C13         0.1384    2.3275    2.6496 C.ar      1 <0>         0.0289
     17 C14        -0.6998    2.1097    1.5715 C.ar      1 <0>        -0.7352
     18 C15        -2.0631    2.3012    1.7018 C.ar      1 <0>         0.0300
     19 C16        -2.5933    2.7000    2.9130 C.ar      1 <0>        -0.2238
     20 S1         -0.0283    1.5938    0.0263 S.o2      1 <0>         2.6934
     21 O2          1.3278    2.0180    0.0108 O.2       1 <0>        -0.9578
     22 O3         -0.9604    1.9850   -0.9724 O.2       1 <0>        -0.9584
     23 N3         -0.0062   -0.0621    0.0304 N.pl3     1 <0>        -1.0033
     24 C17        -1.1550   -0.8362   -0.4657 C.3       1 <0>         0.0879
     25 C18        -0.6414   -1.8732   -1.4712 C.3       1 <0>         0.0788
     26 H1         -0.2077   -1.3925   -2.3605 H         1 <0>         0.0650
     27 O4          0.4191   -2.6230   -0.8737 O.3       1 <0>        -0.3814
     28 C19         1.5639   -1.8413   -0.5241 C.3       1 <0>         0.0791
     29 H2          1.8981   -1.3596   -1.4548 H         1 <0>         0.0646
     30 C20         1.1654   -0.8027    0.5246 C.3       1 <0>         0.0872
     31 C21         2.6519   -2.7544    0.0446 C.3       1 <0>        -0.1461
     32 C22        -1.7811   -2.8175   -1.8587 C.3       1 <0>        -0.1462
     33 H3         -5.7739    4.9699   13.1993 H         1 <0>         0.0657
     34 H4         -7.5256    4.9686   12.8016 H         1 <0>         0.0699
     35 H5         -6.5785    6.4902   12.6816 H         1 <0>         0.0697
     36 H6         -4.4349    4.0112   11.5940 H         1 <0>         0.1250
     37 H7         -3.8973    3.4917    9.2493 H         1 <0>         0.1432
     38 H8         -7.9401    6.0928   10.3391 H         1 <0>         0.1261
     39 H9         -8.5023    6.2854    8.1154 H         1 <0>         0.0728
     40 H10        -8.0517    4.8621    7.1165 H         1 <0>         0.0680
     41 H11        -7.0979    6.3797    6.9995 H         1 <0>         0.0692
     42 H12        -6.1197    4.1749    6.3840 H         1 <0>         0.4365
     43 H13        -4.2531    2.5825    5.1501 H         1 <0>         0.0986
     44 H14        -4.0665    4.2997    4.6571 H         1 <0>         0.0976
     45 H15        -1.6208    3.5033    6.0811 H         1 <0>         0.4400
     46 H16         0.2706    2.9023    4.7036 H         1 <0>         0.1320
     47 H17         1.2032    2.1816    2.5431 H         1 <0>         0.1381
     48 H18        -2.7144    2.1348    0.8565 H         1 <0>         0.1373
     49 H19        -3.6586    2.8452    3.0153 H         1 <0>         0.1290
     50 H20        -1.6482   -1.3417    0.3776 H         1 <0>         0.0805
     51 H21        -1.8697   -0.1586   -0.9557 H         1 <0>         0.1044
     52 H22         1.9971   -0.1028    0.6934 H         1 <0>         0.1049
     53 H23         0.9103   -1.3039    1.4700 H         1 <0>         0.0806
     54 H24         3.5324   -2.1523    0.3133 H         1 <0>         0.0771
     55 H25         2.9355   -3.5016   -0.7112 H         1 <0>         0.0696
     56 H26         2.2700   -3.2658    0.9405 H         1 <0>         0.0679
     57 H27        -1.4118   -3.5612   -2.5801 H         1 <0>         0.0695
     58 H28        -2.5979   -2.2387   -2.3145 H         1 <0>         0.0769
     59 H29        -2.1529   -3.3315   -0.9601 H         1 <0>         0.0677
@<TRIPOS>BOND
     1    1    2 1
     2    1   33 1
     3    1   34 1
     4    1   35 1
     5    2    7 ar
     6    2    3 ar
     7    3    4 ar
     8    3   36 1
     9    4    5 ar
    10    4   37 1
    11    5    6 ar
    12    5    9 1
    13    6    7 ar
    14    6    8 1
    15    7   38 1
    16    8   39 1
    17    8   40 1
    18    8   41 1
    19    9   10 am
    20    9   42 1
    21   10   11 2
    22   10   12 1
    23   12   13 1
    24   12   43 1
    25   12   44 1
    26   13   14 1
    27   13   45 1
    28   14   19 ar
    29   14   15 ar
    30   15   16 ar
    31   15   46 1
    32   16   17 ar
    33   16   47 1
    34   17   18 ar
    35   17   20 1
    36   18   19 ar
    37   18   48 1
    38   19   49 1
    39   20   21 2
    40   20   22 2
    41   20   23 1
    42   23   30 1
    43   23   24 1
    44   24   25 1
    45   24   50 1
    46   24   51 1
    47   25   26 1
    48   25   27 1
    49   25   32 1
    50   27   28 1
    51   28   29 1
    52   28   30 1
    53   28   31 1
    54   30   52 1
    55   30   53 1
    56   31   54 1
    57   31   55 1
    58   31   56 1
    59   32   57 1
    60   32   58 1
    61   32   59 1
@<TRIPOS>MOLECULE
ZINC37436392
   52    55     0     0     0
SMALL
USER_CHARGES

@<TRIPOS>ATOM
      1 C1          0.0744    1.2453   -0.6783 C.ar      1 <0>        -0.0547
      2 C2          1.2583    1.9569   -0.6510 C.ar      1 <0>        -0.1568
      3 C3          2.3834    1.4084   -0.0498 C.ar      1 <0>         0.1934
      4 C4          2.3149    0.1438    0.5232 C.ar      1 <0>        -0.0723
      5 C5          1.1269   -0.5633    0.4924 C.ar      1 <0>         0.0053
      6 C6          0.0079   -0.0123   -0.1080 C.ar      1 <0>        -0.1218
      7 Cl1         1.0389   -2.1430    1.2068 Cl        1 <0>        -0.0336
      8 Cl2         3.7185   -0.5470    1.2756 Cl        1 <0>        -0.0346
      9 N1          3.5829    2.1265   -0.0212 N.pl3     1 <0>        -0.6031
     10 C7          3.5655    3.5084   -0.1186 C.2       1 <0>         0.3501
     11 N2          4.5753    4.3469   -0.2368 N.2       1 <0>        -0.5290
     12 C8          4.3744    5.6637   -0.3194 C.2       1 <0>         0.0415
     13 C9          3.0897    6.1450   -0.2798 C.2       1 <0>        -0.1553
     14 S1          2.1674    4.6214   -0.1250 S.3       1 <0>         0.0529
     15 C10         5.5137    6.5861   -0.4506 C.2       1 <0>         0.6120
     16 O1          5.3204    7.7849   -0.5247 O.2       1 <0>        -0.5267
     17 N3          6.7713    6.1028   -0.4885 N.am      1 <0>        -0.5840
     18 C11         7.1471    4.6791   -0.4153 C.3       1 <0>         0.1076
     19 C12         8.5332    4.5991   -1.1024 C.3       1 <0>        -0.1381
     20 C13         9.1872    5.9279   -0.6401 C.3       1 <0>        -0.1208
     21 C14         7.9951    6.9075   -0.6162 C.3       1 <0>         0.1201
     22 H1          8.0873    7.5798    0.2368 H         1 <0>         0.0990
     23 C15         7.9551    7.7015   -1.8964 C.2       1 <0>         0.5120
     24 O2          7.1970    7.3792   -2.7865 O.2       1 <0>        -0.5247
     25 N4          8.7619    8.7699   -2.0521 N.am      1 <0>        -0.7234
     26 C16         8.7230    9.5418   -3.2966 C.3       1 <0>         0.1132
     27 C17         9.7286   10.6921   -3.2149 C.3       1 <0>         0.0681
     28 H2          9.5385   11.2864   -2.3212 H         1 <0>         0.0889
     29 C18         9.6097   11.5819   -4.4708 C.3       1 <0>        -0.1485
     30 C19        11.0936   11.9279   -4.7714 C.3       1 <0>        -0.1563
     31 C20        11.7960   10.6195   -4.3291 C.3       1 <0>         0.0489
     32 O3         11.0619   10.1700   -3.1768 O.3       1 <0>        -0.3763
     33 H3         -0.8017    1.6739   -1.1420 H         1 <0>         0.1502
     34 H4          1.3087    2.9391   -1.0973 H         1 <0>         0.1467
     35 H5         -0.9191   -0.5659   -0.1307 H         1 <0>         0.1500
     36 H6          4.4272    1.6571    0.0668 H         1 <0>         0.4310
     37 H7          2.7338    7.1633   -0.3321 H         1 <0>         0.2102
     38 H8          7.2198    4.3589    0.6240 H         1 <0>         0.0698
     39 H9          6.4219    4.0673   -0.9518 H         1 <0>         0.1060
     40 H10         9.0985    3.7394   -0.7426 H         1 <0>         0.0890
     41 H11         8.4305    4.5708   -2.1872 H         1 <0>         0.0777
     42 H12         9.6213    5.8188    0.3538 H         1 <0>         0.0915
     43 H13         9.9396    6.2572   -1.3567 H         1 <0>         0.0874
     44 H14         9.3682    9.0277   -1.3402 H         1 <0>         0.4031
     45 H15         8.9798    8.8936   -4.1345 H         1 <0>         0.0708
     46 H16         7.7210    9.9450   -3.4430 H         1 <0>         0.0778
     47 H17         9.1652   11.0283   -5.2979 H         1 <0>         0.0824
     48 H18         9.0373   12.4839   -4.2544 H         1 <0>         0.0876
     49 H19        11.2457   12.1154   -5.8343 H         1 <0>         0.0860
     50 H20        11.4284   12.7752   -4.1731 H         1 <0>         0.0805
     51 H21        11.7458    9.8757   -5.1242 H         1 <0>         0.0616
     52 H22        12.8336   10.8190   -4.0615 H         1 <0>         0.0875
@<TRIPOS>BOND
     1    1    6 ar
     2    1    2 ar
     3    1   33 1
     4    2    3 ar
     5    2   34 1
     6    3    4 ar
     7    3    9 1
     8    4    5 ar
     9    4    8 1
    10    5    6 ar
    11    5    7 1
    12    6   35 1
    13    9   10 1
    14    9   36 1
    15   10   14 1
    16   10   11 2
    17   11   12 1
    18   12   13 2
    19   12   15 1
    20   13   14 1
    21   13   37 1
    22   15   16 2
    23   15   17 am
    24   17   21 1
    25   17   18 1
    26   18   19 1
    27   18   38 1
    28   18   39 1
    29   19   20 1
    30   19   40 1
    31   19   41 1
    32   20   21 1
    33   20   42 1
    34   20   43 1
    35   21   22 1
    36   21   23 1
    37   23   24 2
    38   23   25 am
    39   25   26 1
    40   25   44 1
    41   26   27 1
    42   26   45 1
    43   26   46 1
    44   27   28 1
    45   27   32 1
    46   27   29 1
    47   29   30 1
    48   29   47 1
    49   29   48 1
    50   30   31 1
    51   30   49 1
    52   30   50 1
    53   31   32 1
    54   31   51 1
    55   31   52 1
@<TRIPOS>MOLECULE
ZINC10432339
   54    57     0     0     0
SMALL
USER_CHARGES

@<TRIPOS>ATOM
      1 C1         -0.6144    1.8290    0.0844 C.ar      1 <0>        -0.1199
      2 C2          0.4248    2.7406    0.0848 C.ar      1 <0>        -0.0207
      3 C3          1.7327    2.2978    0.0214 C.ar      1 <0>        -0.6693
      4 C4          2.0015    0.9433   -0.0420 C.ar      1 <0>        -0.0207
      5 C5          0.9624    0.0317   -0.0415 C.ar      1 <0>        -0.1201
      6 C6         -0.3456    0.4746    0.0205 C.ar      1 <0>        -0.0545
      7 C7         -1.4784   -0.5193    0.0206 C.3       1 <0>         0.1573
      8 N1         -1.8942   -0.7859   -1.3587 N.am      1 <0>        -0.7279
      9 C8         -2.8989   -1.6499   -1.6046 C.2       1 <0>         0.5947
     10 O1         -3.4605   -2.2082   -0.6815 O.2       1 <0>        -0.5262
     11 C9         -3.3168   -1.9180   -2.9912 C.2       1 <0>        -0.2836
     12 C10        -2.7134   -1.4523   -4.1411 C.2       1 <0>         0.1126
     13 N2         -3.4035   -1.9259   -5.1895 N.pl3     1 <0>        -0.4586
     14 H1         -3.1944   -1.7519   -6.1206 H         1 <0>         0.4476
     15 N3         -4.4691   -2.7089   -4.7365 N.2       1 <0>        -0.2738
     16 C11        -4.4528   -2.7378   -3.4233 C.2       1 <0>         0.1748
     17 C12        -5.4047   -3.4596   -2.5448 C.ar      1 <0>        -0.0213
     18 C13        -5.9252   -2.8331   -1.4136 C.ar      1 <0>        -0.0388
     19 C14        -6.8106   -3.5091   -0.5994 C.ar      1 <0>        -0.1148
     20 C15        -7.1821   -4.8075   -0.9043 C.ar      1 <0>        -0.0201
     21 C16        -6.6679   -5.4342   -2.0266 C.ar      1 <0>        -0.1186
     22 C17        -5.7863   -4.7649   -2.8505 C.ar      1 <0>        -0.0747
     23 Cl1        -8.2960   -5.6528    0.1245 Cl        1 <0>        -0.0686
     24 S1          3.0572    3.4598    0.0207 S.o2      1 <0>         2.6884
     25 O2          4.1633    2.8145   -0.5953 O.2       1 <0>        -0.9524
     26 O3          2.5230    4.6842   -0.4638 O.2       1 <0>        -0.9524
     27 N4          3.4808    3.7204    1.6002 N.pl3     1 <0>        -0.9950
     28 C18         2.8354    4.7833    2.3828 C.3       1 <0>         0.1185
     29 C19         2.2759    4.1753    3.6728 C.3       1 <0>        -0.1367
     30 C20         3.3958    3.4412    4.4136 C.3       1 <0>        -0.1188
     31 C21         3.9309    2.3063    3.5373 C.3       1 <0>        -0.1370
     32 C22         4.5049    2.8891    2.2476 C.3       1 <0>         0.1186
     33 H2         -1.6361    2.1748    0.1385 H         1 <0>         0.1363
     34 H3          0.2147    3.7989    0.1343 H         1 <0>         0.1418
     35 H4          3.0234    0.5974   -0.0923 H         1 <0>         0.1417
     36 H5          1.1724   -1.0265   -0.0917 H         1 <0>         0.1362
     37 H6         -1.1474   -1.4475    0.4862 H         1 <0>         0.0841
     38 H7         -2.3196   -0.1114    0.5812 H         1 <0>         0.0842
     39 H8         -1.4463   -0.3407   -2.0949 H         1 <0>         0.3987
     40 H9         -1.8403   -0.8184   -4.1889 H         1 <0>         0.1887
     41 H10        -5.6358   -1.8204   -1.1748 H         1 <0>         0.1352
     42 H11        -7.2142   -3.0247    0.2775 H         1 <0>         0.1369
     43 H12        -6.9606   -6.4473   -2.2599 H         1 <0>         0.1372
     44 H13        -5.3893   -5.2531   -3.7282 H         1 <0>         0.1339
     45 H14         3.5679    5.5520    2.6289 H         1 <0>         0.0779
     46 H15         2.0230    5.2218    1.8032 H         1 <0>         0.0904
     47 H16         1.8794    4.9685    4.3067 H         1 <0>         0.0772
     48 H17         1.4797    3.4723    3.4282 H         1 <0>         0.0668
     49 H18         4.2026    4.1395    4.6361 H         1 <0>         0.0662
     50 H19         3.0060    3.0285    5.3442 H         1 <0>         0.0660
     51 H20         4.7125    1.7692    4.0747 H         1 <0>         0.0777
     52 H21         3.1191    1.6209    3.2939 H         1 <0>         0.0666
     53 H22         4.7937    2.0783    1.5788 H         1 <0>         0.0905
     54 H23         5.3765    3.5000    2.4824 H         1 <0>         0.0775
@<TRIPOS>BOND
     1    1    6 ar
     2    1    2 ar
     3    1   33 1
     4    2    3 ar
     5    2   34 1
     6    3    4 ar
     7    3   24 1
     8    4    5 ar
     9    4   35 1
    10    5    6 ar
    11    5   36 1
    12    6    7 1
    13    7    8 1
    14    7   37 1
    15    7   38 1
    16    8    9 am
    17    8   39 1
    18    9   10 2
    19    9   11 1
    20   11   16 1
    21   11   12 2
    22   12   13 1
    23   12   40 1
    24   13   14 1
    25   13   15 1
    26   15   16 2
    27   16   17 1
    28   17   22 ar
    29   17   18 ar
    30   18   19 ar
    31   18   41 1
    32   19   20 ar
    33   19   42 1
    34   20   21 ar
    35   20   23 1
    36   21   22 ar
    37   21   43 1
    38   22   44 1
    39   24   25 2
    40   24   26 2
    41   24   27 1
    42   27   32 1
    43   27   28 1
    44   28   29 1
    45   28   45 1
    46   28   46 1
    47   29   30 1
    48   29   47 1
    49   29   48 1
    50   30   31 1
    51   30   49 1
    52   30   50 1
    53   31   32 1
    54   31   51 1
    55   31   52 1
    56   32   53 1
    57   32   54 1
@<TRIPOS>MOLECULE
ZINC03298722
   49    51     0     0     0
SMALL
USER_CHARGES
2-[4-[4-(difluoromethoxy)phenyl]-4-methyl-2,5-dioxo-imidazolidin-1-yl]-N-(tetrahydrofuran-2-ylmethyl)acetamide
@<TRIPOS>ATOM
      1 C1          1.6866    2.6019   -1.2585 C.3       1 <0>        -0.1447
      2 C2          1.3895    1.7816   -0.0016 C.3       1 <0>         0.1743
      3 C3          2.1699    0.4822   -0.0161 C.2       1 <0>         0.5425
      4 O1          3.3752    0.3520   -0.0286 O.2       1 <0>        -0.4561
      5 N1          1.2453   -0.4983   -0.0125 N.am      1 <0>        -0.5597
      6 C4          0.0021   -0.0041    0.0020 C.2       1 <0>         0.7121
      7 O2         -0.9989   -0.6934    0.0079 O.2       1 <0>        -0.5337
      8 N2         -0.0162    1.3411    0.0094 N.am      1 <0>        -0.7156
      9 C5          1.5623   -1.9285   -0.0225 C.3       1 <0>         0.0989
     10 C6          1.6577   -2.4120   -1.4466 C.2       1 <0>         0.5030
     11 O3          1.4785   -1.6381   -2.3630 O.2       1 <0>        -0.5275
     12 N3          1.9421   -3.7045   -1.7019 N.am      1 <0>        -0.7213
     13 C7          2.0348   -4.1745   -3.0863 C.3       1 <0>         0.1276
     14 C8          2.3659   -5.6682   -3.0967 C.3       1 <0>         0.0610
     15 H1          3.2479   -5.8649   -2.4872 H         1 <0>         0.0784
     16 C9          2.5920   -6.1588   -4.5440 C.3       1 <0>        -0.1481
     17 C10         1.9758   -7.5757   -4.5606 C.3       1 <0>        -0.1558
     18 C11         1.4504   -7.7734   -3.1214 C.3       1 <0>         0.0438
     19 O4          1.2401   -6.4360   -2.6184 O.3       1 <0>        -0.3685
     20 C12         1.7058    2.5763    1.2391 C.ar      1 <0>        -0.1232
     21 C13         2.9775    2.5340    1.7802 C.ar      1 <0>        -0.0679
     22 C14         3.2715    3.2660    2.9143 C.ar      1 <0>        -0.1844
     23 C15         2.2867    4.0356    3.5164 C.ar      1 <0>         0.1161
     24 C16         1.0100    4.0719    2.9747 C.ar      1 <0>        -0.1315
     25 C17         0.7224    3.3421    1.8376 C.ar      1 <0>        -0.0604
     26 O5          2.5720    4.7523    4.6353 O.3       1 <0>        -0.3189
     27 C18         3.9072    4.6673    5.1372 C.3       1 <0>         0.4114
     28 F1          4.2014    3.3376    5.4574 F         1 <0>        -0.1968
     29 F2          4.8018    5.1210    4.1619 F         1 <0>        -0.1963
     30 H2          1.0499    3.4865   -1.2739 H         1 <0>         0.0838
     31 H3          2.7330    2.9074   -1.2540 H         1 <0>         0.0867
     32 H4          1.4887    1.9963   -2.1429 H         1 <0>         0.0767
     33 H5         -0.8018    1.9100    0.0164 H         1 <0>         0.4413
     34 H6          2.5146   -2.0931    0.4817 H         1 <0>         0.1282
     35 H7          0.7769   -2.4784    0.4961 H         1 <0>         0.1315
     36 H8          2.0854   -4.3234   -0.9689 H         1 <0>         0.4063
     37 H9          1.0826   -4.0099   -3.5905 H         1 <0>         0.0795
     38 H10         2.8203   -3.6246   -3.6048 H         1 <0>         0.0845
     39 H11         2.0767   -5.5099   -5.2521 H         1 <0>         0.0811
     40 H12         3.6573   -6.2007   -4.7710 H         1 <0>         0.0824
     41 H13         1.1559   -7.6272   -5.2770 H         1 <0>         0.0780
     42 H14         2.7365   -8.3202   -4.7951 H         1 <0>         0.0794
     43 H15         0.5112   -8.3265   -3.1331 H         1 <0>         0.0941
     44 H16         2.1904   -8.2964   -2.5158 H         1 <0>         0.0618
     45 H17         3.7427    1.9313    1.3136 H         1 <0>         0.1467
     46 H18         4.2661    3.2359    3.3343 H         1 <0>         0.1389
     47 H19         0.2417    4.6704    3.4414 H         1 <0>         0.1411
     48 H20        -0.2713    3.3700    1.4155 H         1 <0>         0.1343
     49 H21         3.9996    5.2851    6.0305 H         1 <0>         0.1849
@<TRIPOS>BOND
     1    1    2 1
     2    1   30 1
     3    1   31 1
     4    1   32 1
     5    2    8 1
     6    2    3 1
     7    2   20 1
     8    3    4 2
     9    3    5 am
    10    5    6 am
    11    5    9 1
    12    6    7 2
    13    6    8 am
    14    8   33 1
    15    9   10 1
    16    9   34 1
    17    9   35 1
    18   10   11 2
    19   10   12 am
    20   12   13 1
    21   12   36 1
    22   13   14 1
    23   13   37 1
    24   13   38 1
    25   14   15 1
    26   14   19 1
    27   14   16 1
    28   16   17 1
    29   16   39 1
    30   16   40 1
    31   17   18 1
    32   17   41 1
    33   17   42 1
    34   18   19 1
    35   18   43 1
    36   18   44 1
    37   20   25 ar
    38   20   21 ar
    39   21   22 ar
    40   21   45 1
    41   22   23 ar
    42   22   46 1
    43   23   24 ar
    44   23   26 1
    45   24   25 ar
    46   24   47 1
    47   25   48 1
    48   26   27 1
    49   27   28 1
    50   27   29 1
    51   27   49 1
@<TRIPOS>MOLECULE
ZINC24576356
   43    45     0     0     0
SMALL
USER_CHARGES
(2S)-N-[4-[(3,4-difluorophenyl)sulfonylamino]phenyl]-2-(1,2,4-triazol-1-yl)propanamide
@<TRIPOS>ATOM
      1 C1         -3.2934    3.7983    0.5461 C.3       1 <0>        -0.1661
      2 C2         -3.4160    2.5135   -0.2757 C.3       1 <0>         0.1432
      3 H1         -3.5005    2.7377   -1.3493 H         1 <0>         0.1379
      4 C3         -2.2110    1.6428   -0.0294 C.2       1 <0>         0.5044
      5 O1         -2.3510    0.5300    0.4327 O.2       1 <0>        -0.5009
      6 N1         -0.9777    2.1004   -0.3226 N.am      1 <0>        -0.6799
      7 C4          0.1321    1.2535   -0.1975 C.ar      1 <0>         0.1440
      8 C5          1.3613    1.7723    0.1869 C.ar      1 <0>        -0.1191
      9 C6          2.4559    0.9392    0.3047 C.ar      1 <0>        -0.1359
     10 C7          2.3274   -0.4180    0.0390 C.ar      1 <0>         0.1295
     11 C8          1.0977   -0.9367   -0.3456 C.ar      1 <0>        -0.1055
     12 C9          0.0034   -0.1032   -0.4636 C.ar      1 <0>        -0.1042
     13 N2          3.4364   -1.2622    0.1583 N.pl3     1 <0>        -1.0661
     14 S1          4.8914   -0.8151   -0.4939 S.o2      1 <0>         2.6980
     15 O2          5.1716    0.4895   -0.0053 O.2       1 <0>        -0.9421
     16 O3          5.7775   -1.9085   -0.2980 O.2       1 <0>        -0.9432
     17 C10         4.6575   -0.6619   -2.2336 C.ar      1 <0>        -0.6668
     18 C11         4.9448   -1.7281   -3.0655 C.ar      1 <0>         0.0027
     19 C12         4.7568   -1.6122   -4.4299 C.ar      1 <0>        -0.1455
     20 C13         4.2912   -0.4241   -4.9658 C.ar      1 <0>         0.1285
     21 C14         4.0084    0.6470   -4.1321 C.ar      1 <0>         0.0503
     22 C15         4.1924    0.5259   -2.7656 C.ar      1 <0>        -0.0213
     23 F1          3.5534    1.8076   -4.6529 F         1 <0>        -0.1198
     24 F2          4.1119   -0.3083   -6.2999 F         1 <0>        -0.1152
     25 N3         -4.6283    1.7934    0.1218 N.pl3     1 <0>        -0.3709
     26 C16        -5.1530    1.7196    1.3572 C.2       1 <0>         0.2705
     27 N4         -6.2350    0.9866    1.2956 N.2       1 <0>        -0.5417
     28 C17        -6.4279    0.5697    0.0449 C.2       1 <0>         0.2059
     29 N5         -5.4699    1.0380   -0.7110 N.2       1 <0>        -0.3145
     30 H2         -4.1730    4.4339    0.3663 H         1 <0>         0.0881
     31 H3         -2.3831    4.3390    0.2476 H         1 <0>         0.0945
     32 H4         -3.2359    3.5457    1.6151 H         1 <0>         0.0784
     33 H5         -0.8421    3.1385   -0.6601 H         1 <0>         0.4383
     34 H6          1.4612    2.8276    0.3935 H         1 <0>         0.1365
     35 H7          3.4119    1.3427    0.6041 H         1 <0>         0.1610
     36 H8          0.9975   -1.9920   -0.5519 H         1 <0>         0.1336
     37 H9         -0.9528   -0.5065   -0.7627 H         1 <0>         0.1372
     38 H10         3.3419   -2.2231    0.6854 H         1 <0>         0.4581
     39 H11         5.3124   -2.6540   -2.6483 H         1 <0>         0.1615
     40 H12         4.9774   -2.4473   -5.0782 H         1 <0>         0.1602
     41 H13         3.9728    1.3597   -2.1152 H         1 <0>         0.1620
     42 H14        -4.7527    2.1861    2.2452 H         1 <0>         0.2151
     43 H15        -7.2439   -0.0535   -0.2901 H         1 <0>         0.2194
@<TRIPOS>BOND
     1    1    2 1
     2    1   30 1
     3    1   31 1
     4    1   32 1
     5    2    3 1
     6    2    4 1
     7    2   25 1
     8    4    5 2
     9    4    6 am
    10    6    7 1
    11    6   33 1
    12    7   12 ar
    13    7    8 ar
    14    8    9 ar
    15    8   34 1
    16    9   10 ar
    17    9   35 1
    18   10   11 ar
    19   10   13 1
    20   11   12 ar
    21   11   36 1
    22   12   37 1
    23   13   14 1
    24   13   38 1
    25   14   15 2
    26   14   16 2
    27   14   17 1
    28   17   22 ar
    29   17   18 ar
    30   18   19 ar
    31   18   39 1
    32   19   20 ar
    33   19   40 1
    34   20   21 ar
    35   20   24 1
    36   21   22 ar
    37   21   23 1
    38   22   41 1
    39   25   29 1
    40   25   26 1
    41   26   27 2
    42   26   42 1
    43   27   28 1
    44   28   29 2
    45   28   43 1
@<TRIPOS>MOLECULE
ZINC04816412
   49    51     0     0     0
SMALL
USER_CHARGES

@<TRIPOS>ATOM
      1 C1          1.2642    1.2271   -0.1580 C.3       1 <0>        -0.1155
      2 C2          0.6279   -0.1366   -0.0790 C.ar      1 <0>        -0.0700
      3 C3          0.0386   -0.6900   -1.2012 C.ar      1 <0>        -0.1319
      4 C4         -0.5459   -1.9411   -1.1330 C.ar      1 <0>        -0.0957
      5 C5         -0.5429   -2.6425    0.0570 C.ar      1 <0>        -0.1195
      6 C6          0.0478   -2.0897    1.1855 C.ar      1 <0>         0.1469
      7 C7          0.6388   -0.8349    1.1123 C.ar      1 <0>        -0.1272
      8 N1          0.0521   -2.7974    2.3926 N.am      1 <0>        -0.6600
      9 C8          0.1503   -2.1345    3.5620 C.2       1 <0>         0.5358
     10 O1          0.1340   -0.9218    3.5749 O.2       1 <0>        -0.4997
     11 C9          0.2802   -2.9001    4.8535 C.3       1 <0>        -0.1485
     12 S1          0.3911   -1.7344    6.2389 S.3       1 <0>         0.0876
     13 C10         0.5366   -2.7702    7.6569 C.2       1 <0>         0.1492
     14 N2          0.5620   -4.0828    7.6655 N.2       1 <0>        -0.2927
     15 N3          0.6773   -4.5093    8.8724 N.2       1 <0>        -0.2549
     16 C11         0.7318   -3.5035    9.6990 C.2       1 <0>         0.1595
     17 N4          0.6501   -2.3595    8.9541 N.pl3     1 <0>        -0.4522
     18 C12         0.6756   -0.9798    9.4461 C.3       1 <0>         0.0650
     19 C13         0.8666   -3.5856   11.1977 C.3       1 <0>         0.2134
     20 N5          2.2858   -3.5857   11.5611 N.am      1 <0>        -0.7206
     21 C14         2.6495   -3.6532   12.8571 C.2       1 <0>         0.6117
     22 O2          1.7990   -3.7139   13.7255 O.2       1 <0>        -0.5120
     23 C15         4.0703   -3.6534   13.2210 C.2       1 <0>        -0.0885
     24 C16         4.5740   -3.7227   14.4882 C.2       1 <0>        -0.1099
     25 C17         5.9722   -3.6947   14.3688 C.2       1 <0>        -0.2250
     26 C18         6.2571   -3.6105   13.0505 C.2       1 <0>         0.0009
     27 O3          5.1086   -3.5909   12.3619 O.3       1 <0>        -0.1661
     28 C19        -1.1807   -4.0059    0.1306 C.3       1 <0>        -0.1165
     29 H1          2.3123    1.1233   -0.4388 H         1 <0>         0.0715
     30 H2          0.7455    1.8273   -0.9056 H         1 <0>         0.0680
     31 H3          1.1951    1.7171    0.8132 H         1 <0>         0.0685
     32 H4          0.0347   -0.1435   -2.1327 H         1 <0>         0.1239
     33 H5         -1.0055   -2.3704   -2.0110 H         1 <0>         0.1273
     34 H6          1.1027   -0.4040    1.9872 H         1 <0>         0.1455
     35 H7         -0.0156   -3.7650    2.3878 H         1 <0>         0.4152
     36 H8         -0.5922   -3.5400    4.9859 H         1 <0>         0.1314
     37 H9          1.1801   -3.5145    4.8227 H         1 <0>         0.1323
     38 H10        -0.3413   -0.6526    9.6628 H         1 <0>         0.0931
     39 H11         1.2750   -0.9293   10.3551 H         1 <0>         0.0981
     40 H12         1.1120   -0.3312    8.6865 H         1 <0>         0.0993
     41 H13         0.3747   -2.7267   11.6543 H         1 <0>         0.0958
     42 H14         0.4000   -4.5037   11.5547 H         1 <0>         0.1133
     43 H15         2.9637   -3.5373   10.8690 H         1 <0>         0.4096
     44 H16         4.0064   -3.7867   15.4048 H         1 <0>         0.1629
     45 H17         6.6861   -3.7328   15.1782 H         1 <0>         0.1599
     46 H18         7.2479   -3.5692   12.6226 H         1 <0>         0.2128
     47 H19        -0.4386   -4.7675   -0.1090 H         1 <0>         0.0724
     48 H20        -1.5624   -4.1746    1.1376 H         1 <0>         0.0620
     49 H21        -2.0022   -4.0618   -0.5835 H         1 <0>         0.0735
@<TRIPOS>BOND
     1    1    2 1
     2    1   29 1
     3    1   30 1
     4    1   31 1
     5    2    7 ar
     6    2    3 ar
     7    3    4 ar
     8    3   32 1
     9    4    5 ar
    10    4   33 1
    11    5    6 ar
    12    5   28 1
    13    6    7 ar
    14    6    8 1
    15    7   34 1
    16    8    9 am
    17    8   35 1
    18    9   10 2
    19    9   11 1
    20   11   12 1
    21   11   36 1
    22   11   37 1
    23   12   13 1
    24   13   17 1
    25   13   14 2
    26   14   15 1
    27   15   16 2
    28   16   17 1
    29   16   19 1
    30   17   18 1
    31   18   38 1
    32   18   39 1
    33   18   40 1
    34   19   20 1
    35   19   41 1
    36   19   42 1
    37   20   21 am
    38   20   43 1
    39   21   22 2
    40   21   23 1
    41   23   27 1
    42   23   24 2
    43   24   25 1
    44   24   44 1
    45   25   26 2
    46   25   45 1
    47   26   27 1
    48   26   46 1
    49   28   47 1
    50   28   48 1
    51   28   49 1
@<TRIPOS>MOLECULE
ZINC13403856
   47    50     0     0     0
SMALL
USER_CHARGES

@<TRIPOS>ATOM
      1 C1          0.3421    1.5359    0.0459 C.3       1 <0>        -0.0936
      2 C2          0.0808    0.0518    0.0339 C.2       1 <0>        -0.1169
      3 C3         -0.1499   -0.5950   -1.1442 C.2       1 <0>        -0.0252
      4 C4         -0.3909   -1.9755   -1.1389 C.2       1 <0>        -0.1726
      5 C5         -0.3944   -2.6587    0.0279 C.2       1 <0>         0.1088
      6 N1         -0.1652   -2.0210    1.2107 N.am      1 <0>        -0.4326
      7 C6          0.0790   -0.6763    1.2369 C.2       1 <0>         0.4366
      8 N2          0.3108   -0.0349    2.3832 N.2       1 <0>        -0.5799
      9 C7          0.3211   -0.6693    3.5457 C.2       1 <0>         0.5045
     10 C8          0.0808   -2.0652    3.5811 C.2       1 <0>        -0.3776
     11 C9         -0.1763   -2.7337    2.3578 C.2       1 <0>         0.5371
     12 O1         -0.3887   -3.9335    2.3400 O.2       1 <0>        -0.5146
     13 C10         0.0852   -2.7691    4.8029 C.2       1 <0>         0.1091
     14 C11        -0.7565   -2.3808    5.8263 C.2       1 <0>        -0.2126
     15 C12        -0.8368   -2.8528    7.1621 C.2       1 <0>         0.4809
     16 O2         -0.0087   -3.8290    7.6017 O.3       1 <0>        -0.5766
     17 N3         -1.7222   -2.3272    7.9536 N.2       1 <0>        -0.6213
     18 C13        -2.5519   -1.3586    7.5377 C.2       1 <0>         0.3867
     19 S1         -3.7764   -0.5403    8.4105 S.2       1 <0>        -0.5461
     20 S2         -2.0426   -1.1380    5.8385 S.3       1 <0>        -0.1686
     21 N4          0.5641    0.0224    4.7112 N.pl3     1 <0>        -0.6892
     22 C14         0.8125    1.4655    4.6682 C.3       1 <0>         0.1338
     23 C15         1.0518    1.9843    6.0876 C.3       1 <0>        -0.1639
     24 C16         1.3111    3.4915    6.0427 C.3       1 <0>         0.1000
     25 N5          1.5402    3.9882    7.4018 N.pl3     1 <0>        -0.4057
     26 C17         0.5869    4.4472    8.2703 C.2       1 <0>         0.0322
     27 C18         1.2277    4.8015    9.4005 C.2       1 <0>         0.0013
     28 N6          2.5366    4.5652    9.2269 N.pl3     1 <0>        -0.4767
     29 C19         2.7306    4.0733    8.0338 C.cat     1 <0>         0.2844
     30 H1          1.4120    1.7173   -0.0566 H         1 <0>         0.0745
     31 H2         -0.1869    2.0047   -0.7839 H         1 <0>         0.0721
     32 H3         -0.0097    1.9592    0.9867 H         1 <0>         0.0825
     33 H4         -0.1474   -0.0471   -2.0748 H         1 <0>         0.1537
     34 H5         -0.5744   -2.4944   -2.0682 H         1 <0>         0.1617
     35 H6         -0.5813   -3.7224    0.0227 H         1 <0>         0.1842
     36 H7          0.7468   -3.6118    4.9382 H         1 <0>         0.1442
     37 H8          0.5709   -0.4459    5.5606 H         1 <0>         0.4194
     38 H9          1.6917    1.6648    4.0555 H         1 <0>         0.0777
     39 H10        -0.0523    1.9704    4.2378 H         1 <0>         0.0817
     40 H11         0.1726    1.7850    6.7003 H         1 <0>         0.0955
     41 H12         1.9166    1.4794    6.5180 H         1 <0>         0.0855
     42 H13         2.1903    3.6908    5.4300 H         1 <0>         0.1250
     43 H14         0.4463    3.9964    5.6123 H         1 <0>         0.1300
     44 H15        -0.4749    4.5130    8.0846 H         1 <0>         0.2248
     45 H16         0.7683    5.2050   10.2907 H         1 <0>         0.2238
     46 H17         3.6853    3.7846    7.6196 H         1 <0>         0.2587
     47 H18         3.2292    4.7304    9.8856 H         1 <0>         0.4636
@<TRIPOS>BOND
     1    1    2 1
     2    1   30 1
     3    1   31 1
     4    1   32 1
     5    2    7 1
     6    2    3 2
     7    3    4 1
     8    3   33 1
     9    4    5 2
    10    4   34 1
    11    5    6 1
    12    5   35 1
    13    6   11 am
    14    6    7 1
    15    7    8 2
    16    8    9 1
    17    9   10 2
    18    9   21 1
    19   10   11 1
    20   10   13 1
    21   11   12 2
    22   13   14 2
    23   13   36 1
    24   14   20 1
    25   14   15 1
    26   15   16 1
    27   15   17 2
    28   17   18 1
    29   18   19 2
    30   18   20 1
    31   21   22 1
    32   21   37 1
    33   22   23 1
    34   22   38 1
    35   22   39 1
    36   23   24 1
    37   23   40 1
    38   23   41 1
    39   24   25 1
    40   24   42 1
    41   24   43 1
    42   25   29 1
    43   25   26 1
    44   26   27 2
    45   26   44 1
    46   27   28 1
    47   27   45 1
    48   28   29 2
    49   28   47 1
    50   29   46 1
@<TRIPOS>MOLECULE
ZINC66315147
   60    62     0     0     0
SMALL
USER_CHARGES

@<TRIPOS>ATOM
      1 C1          0.0897    1.4987   -0.0518 C.3       1 <0>        -0.1640
      2 C2          0.0995   -0.0313   -0.0495 C.3       1 <0>         0.1577
      3 H1         -0.9258   -0.4011   -0.0506 H         1 <0>         0.0959
      4 C3          0.8219   -0.5347    1.2017 C.3       1 <0>        -0.1518
      5 C4          0.7251   -2.0372    1.2673 C.2       1 <0>         0.5127
      6 O1          0.1362   -2.6454    0.3989 O.2       1 <0>        -0.5225
      7 N1          1.2928   -2.7050    2.2911 N.am      1 <0>        -0.6186
      8 C5          2.0043   -1.9807    3.3537 C.3       1 <0>         0.0946
      9 C6          1.3935   -2.3698    4.7057 C.3       1 <0>         0.0278
     10 N2          1.3119   -3.8353    4.7797 N.am      1 <0>        -0.5789
     11 C7          0.6004   -4.5596    3.7171 C.3       1 <0>         0.0934
     12 C8          1.2064   -4.1701    2.3681 C.3       1 <0>         0.0996
     13 C9          1.8796   -4.5031    5.8035 C.2       1 <0>         0.5096
     14 O2          1.7241   -5.7022    5.9063 O.2       1 <0>        -0.5161
     15 C10         2.7008   -3.7669    6.8121 C.2       1 <0>         0.5193
     16 O3          2.7678   -2.5559    6.7726 O.2       1 <0>        -0.5066
     17 N3          3.3668   -4.4480    7.7655 N.am      1 <0>        -0.6662
     18 C11         4.1718   -3.7263    8.7541 C.3       1 <0>         0.0672
     19 C12         5.5543   -4.2905    9.0872 C.3       1 <0>        -0.1866
     20 C13         4.4150   -4.4092   10.1015 C.3       1 <0>        -0.1828
     21 N4          0.7952   -0.5170   -1.2438 N.am      1 <0>        -0.7183
     22 C14         0.1255   -0.6518   -2.4056 C.2       1 <0>         0.5257
     23 O4         -1.0529   -0.3709   -2.4625 O.2       1 <0>        -0.5381
     24 C15         0.8411   -1.1515   -3.6342 C.3       1 <0>        -0.1055
     25 C16         1.9896   -0.2006   -3.9776 C.3       1 <0>        -0.1086
     26 C17         2.7161   -0.7079   -5.2248 C.3       1 <0>        -0.1183
     27 C18         1.7352   -0.7674   -6.3976 C.3       1 <0>        -0.1225
     28 C19         0.5868   -1.7183   -6.0542 C.3       1 <0>        -0.1207
     29 C20        -0.1397   -1.2110   -4.8069 C.3       1 <0>        -0.0988
     30 H2          1.1151    1.8686   -0.0507 H         1 <0>         0.0583
     31 H3         -0.4249    1.8574   -0.9432 H         1 <0>         0.0661
     32 H4         -0.4278    1.8601    0.8367 H         1 <0>         0.0673
     33 H5          1.8704   -0.2398    1.1593 H         1 <0>         0.1003
     34 H6          0.3582   -0.1017    2.0880 H         1 <0>         0.1108
     35 H7          3.0599   -2.2517    3.3376 H         1 <0>         0.0760
     36 H8          1.8973   -0.9070    3.1994 H         1 <0>         0.1001
     37 H9          2.0243   -1.9974    5.5128 H         1 <0>         0.1743
     38 H10         0.3943   -1.9429    4.7922 H         1 <0>         0.0744
     39 H11         0.7074   -5.6334    3.8714 H         1 <0>         0.1084
     40 H12        -0.4552   -4.2886    3.7332 H         1 <0>         0.0804
     41 H13         0.5725   -4.5419    1.5630 H         1 <0>         0.1087
     42 H14         2.2039   -4.6005    2.2802 H         1 <0>         0.0730
     43 H15         3.3133   -5.4160    7.7970 H         1 <0>         0.4162
     44 H16         4.0572   -2.6423    8.7528 H         1 <0>         0.1449
     45 H17         5.8650   -5.1987    8.5708 H         1 <0>         0.1005
     46 H18         6.3497   -3.5778    9.3049 H         1 <0>         0.1080
     47 H19         4.4608   -3.7746   10.9864 H         1 <0>         0.1094
     48 H20         3.9761   -5.3955   10.2523 H         1 <0>         0.1015
     49 H21         1.7377   -0.7416   -1.1983 H         1 <0>         0.3951
     50 H22         1.2394   -2.1479   -3.4426 H         1 <0>         0.0952
     51 H23         1.5913    0.7958   -4.1691 H         1 <0>         0.0680
     52 H24         2.6883   -0.1582   -3.1421 H         1 <0>         0.0637
     53 H25         3.5342   -0.0305   -5.4695 H         1 <0>         0.0654
     54 H26         3.1143   -1.7043   -5.0333 H         1 <0>         0.0637
     55 H27         1.3370    0.2290   -6.5891 H         1 <0>         0.0628
     56 H28         2.2528   -1.1288   -7.2862 H         1 <0>         0.0628
     57 H29        -0.1120   -1.7607   -6.8896 H         1 <0>         0.0658
     58 H30         0.9850   -2.7147   -5.8626 H         1 <0>         0.0620
     59 H31        -0.9579   -1.8884   -4.5622 H         1 <0>         0.0690
     60 H32        -0.5379   -0.2146   -4.9984 H         1 <0>         0.0691
@<TRIPOS>BOND
     1    1    2 1
     2    1   30 1
     3    1   31 1
     4    1   32 1
     5    2    3 1
     6    2    4 1
     7    2   21 1
     8    4    5 1
     9    4   33 1
    10    4   34 1
    11    5    6 2
    12    5    7 am
    13    7   12 1
    14    7    8 1
    15    8    9 1
    16    8   35 1
    17    8   36 1
    18    9   10 1
    19    9   37 1
    20    9   38 1
    21   10   11 1
    22   10   13 am
    23   11   12 1
    24   11   39 1
    25   11   40 1
    26   12   41 1
    27   12   42 1
    28   13   14 2
    29   13   15 1
    30   15   16 2
    31   15   17 am
    32   17   18 1
    33   17   43 1
    34   18   20 1
    35   18   19 1
    36   18   44 1
    37   19   20 1
    38   19   45 1
    39   19   46 1
    40   20   47 1
    41   20   48 1
    42   21   22 am
    43   21   49 1
    44   22   23 2
    45   22   24 1
    46   24   29 1
    47   24   25 1
    48   24   50 1
    49   25   26 1
    50   25   51 1
    51   25   52 1
    52   26   27 1
    53   26   53 1
    54   26   54 1
    55   27   28 1
    56   27   55 1
    57   27   56 1
    58   28   29 1
    59   28   57 1
    60   28   58 1
    61   29   59 1
    62   29   60 1
@<TRIPOS>MOLECULE
ZINC09283876
   60    63     0     0     0
SMALL
USER_CHARGES
N-[4-(4-acetylaminophenyl)thiazol-2-yl]-2-methyl-5-(1-piperidylsulfonyl)benzamide
@<TRIPOS>ATOM
      1 C1          5.1011   -2.1602   -4.1145 C.3       1 <0>        -0.1353
      2 C2          4.7083   -1.7708   -2.7127 C.ar      1 <0>         0.0420
      3 C3          3.6451   -2.3954   -2.0937 C.ar      1 <0>        -0.1456
      4 C4          3.2868   -2.0431   -0.8048 C.ar      1 <0>         0.0177
      5 C5          3.9844   -1.0557   -0.1315 C.ar      1 <0>        -0.6910
      6 C6          5.0493   -0.4233   -0.7386 C.ar      1 <0>         0.0213
      7 C7          5.4195   -0.7777   -2.0373 C.ar      1 <0>        -0.1605
      8 C8          6.5592   -0.1040   -2.6942 C.2       1 <0>         0.5663
      9 O1          6.9539   -0.4932   -3.7761 O.2       1 <0>        -0.4844
     10 N1          7.1609    0.9419   -2.0938 N.am      1 <0>        -0.6070
     11 C9          8.2316    1.5748   -2.7109 C.2       1 <0>         0.3148
     12 N2          8.9477    2.6027   -2.2939 N.2       1 <0>        -0.5275
     13 C10         9.9462    3.0843   -3.0187 C.2       1 <0>         0.1233
     14 C11        10.2415    2.5061   -4.2219 C.2       1 <0>        -0.2401
     15 S1          9.0115    1.2095   -4.2772 S.3       1 <0>         0.1218
     16 C12        10.7364    4.2403   -2.5298 C.ar      1 <0>        -0.0404
     17 C13        11.7897    4.7396   -3.2947 C.ar      1 <0>        -0.0835
     18 C14        12.5191    5.8181   -2.8406 C.ar      1 <0>        -0.1445
     19 C15        12.2125    6.3999   -1.6165 C.ar      1 <0>         0.1479
     20 C16        11.1669    5.9004   -0.8497 C.ar      1 <0>        -0.1229
     21 C17        10.4308    4.8258   -1.3020 C.ar      1 <0>        -0.0660
     22 N3         12.9583    7.4902   -1.1551 N.am      1 <0>        -0.6768
     23 C18        13.2143    7.6227    0.1615 C.2       1 <0>         0.5094
     24 O2         12.7300    6.8435    0.9549 O.2       1 <0>        -0.5226
     25 C19        14.1023    8.7390    0.6478 C.3       1 <0>        -0.1738
     26 S2          3.5158   -0.6103    1.5076 S.o2      1 <0>         2.6893
     27 O3          4.6683   -0.0498    2.1214 O.2       1 <0>        -0.9490
     28 O4          2.8308   -1.7298    2.0525 O.2       1 <0>        -0.9478
     29 N4          2.4040    0.6107    1.3844 N.pl3     1 <0>        -0.9945
     30 C20         0.9687    0.3100    1.2937 C.3       1 <0>         0.1178
     31 C21         0.3959    1.0079    0.0561 C.3       1 <0>        -0.1368
     32 C22         0.7222    2.5017    0.1210 C.3       1 <0>        -0.1187
     33 C23         2.2405    2.6943    0.1248 C.3       1 <0>        -0.1374
     34 C24         2.8342    2.0155    1.3631 C.3       1 <0>         0.1173
     35 H1          5.9198   -2.8788   -4.0761 H         1 <0>         0.0900
     36 H2          4.2463   -2.6100   -4.6196 H         1 <0>         0.0710
     37 H3          5.4212   -1.2735   -4.6617 H         1 <0>         0.1006
     38 H4          3.0939   -3.1640   -2.6152 H         1 <0>         0.1466
     39 H5          2.4565   -2.5383   -0.3232 H         1 <0>         0.1489
     40 H6          5.5953    0.3446   -0.2106 H         1 <0>         0.1420
     41 H7          6.8460    1.2525   -1.2305 H         1 <0>         0.4259
     42 H8         11.0089    2.7592   -4.9384 H         1 <0>         0.1999
     43 H9         12.0315    4.2847   -4.2439 H         1 <0>         0.1299
     44 H10        13.3323    6.2081   -3.4348 H         1 <0>         0.1297
     45 H11        10.9307    6.3541    0.1015 H         1 <0>         0.1404
     46 H12         9.6184    4.4377   -0.7055 H         1 <0>         0.1357
     47 H13        13.2910    8.1507   -1.7827 H         1 <0>         0.4124
     48 H14        13.6675    9.6980    0.3663 H         1 <0>         0.0922
     49 H15        14.1922    8.6853    1.7328 H         1 <0>         0.0975
     50 H16        15.0894    8.6410    0.1961 H         1 <0>         0.0923
     51 H17         0.4617    0.6754    2.1867 H         1 <0>         0.0790
     52 H18         0.8237   -0.7668    1.2059 H         1 <0>         0.0914
     53 H19        -0.6853    0.8725    0.0299 H         1 <0>         0.0778
     54 H20         0.8389    0.5774   -0.8420 H         1 <0>         0.0666
     55 H21         0.2945    3.0048   -0.7462 H         1 <0>         0.0660
     56 H22         0.3000    2.9264    1.0317 H         1 <0>         0.0669
     57 H23         2.6660    2.2479   -0.7740 H         1 <0>         0.0658
     58 H24         2.4721    3.7591    0.1474 H         1 <0>         0.0781
     59 H25         2.4792    2.5199    2.2618 H         1 <0>         0.0800
     60 H26         3.9222    2.0638    1.3200 H         1 <0>         0.0904
@<TRIPOS>BOND
     1    1    2 1
     2    1   35 1
     3    1   36 1
     4    1   37 1
     5    2    7 ar
     6    2    3 ar
     7    3    4 ar
     8    3   38 1
     9    4    5 ar
    10    4   39 1
    11    5    6 ar
    12    5   26 1
    13    6    7 ar
    14    6   40 1
    15    7    8 1
    16    8    9 2
    17    8   10 am
    18   10   11 1
    19   10   41 1
    20   11   15 1
    21   11   12 2
    22   12   13 1
    23   13   14 2
    24   13   16 1
    25   14   15 1
    26   14   42 1
    27   16   21 ar
    28   16   17 ar
    29   17   18 ar
    30   17   43 1
    31   18   19 ar
    32   18   44 1
    33   19   20 ar
    34   19   22 1
    35   20   21 ar
    36   20   45 1
    37   21   46 1
    38   22   23 am
    39   22   47 1
    40   23   24 2
    41   23   25 1
    42   25   48 1
    43   25   49 1
    44   25   50 1
    45   26   27 2
    46   26   28 2
    47   26   29 1
    48   29   34 1
    49   29   30 1
    50   30   31 1
    51   30   51 1
    52   30   52 1
    53   31   32 1
    54   31   53 1
    55   31   54 1
    56   32   33 1
    57   32   55 1
    58   32   56 1
    59   33   34 1
    60   33   57 1
    61   33   58 1
    62   34   59 1
    63   34   60 1
@<TRIPOS>MOLECULE
ZINC13607877
   65    68     0     0     0
SMALL
USER_CHARGES
N-[(1R)-1-benzyl-2-[(1,3-dimethyl-2,6-dioxo-pyrimidin-4-yl)methylamino]-2-oxo-ethyl]-4-phenyl-benzamide
@<TRIPOS>ATOM
      1 C1         -4.7722    7.1067    1.9601 C.3       1 <0>         0.0719
      2 N1         -4.8428    8.3569    1.1997 N.am      1 <0>        -0.5312
      3 C2         -5.1710    8.3249   -0.1283 C.2       1 <0>         0.1746
      4 C3         -5.2310    9.4768   -0.8302 C.2       1 <0>        -0.2623
      5 C4         -4.9618   10.7002   -0.1706 C.2       1 <0>         0.5455
      6 O1         -5.0142   11.7523   -0.7816 O.2       1 <0>        -0.5048
      7 N2         -4.6421   10.6892    1.1393 N.am      1 <0>        -0.5559
      8 C5         -4.5840    9.5258    1.8137 C.2       1 <0>         0.6940
      9 O2         -4.2940    9.5313    2.9944 O.2       1 <0>        -0.5307
     10 C6         -4.3562   11.9485    1.8311 C.3       1 <0>         0.0778
     11 C7         -5.4579    7.0097   -0.8057 C.3       1 <0>         0.1554
     12 N3         -4.2425    6.1919   -0.8190 N.am      1 <0>        -0.7281
     13 C8         -4.2614    4.9656   -1.3779 C.2       1 <0>         0.5195
     14 O3         -5.2847    4.5391   -1.8698 O.2       1 <0>        -0.5200
     15 C9         -3.0112    4.1243   -1.3917 C.3       1 <0>         0.1376
     16 H1         -2.2259    4.6494   -1.9354 H         1 <0>         0.1212
     17 C10        -2.5528    3.8685    0.0455 C.3       1 <0>        -0.0881
     18 C11        -1.2377    3.1328    0.0299 C.ar      1 <0>        -0.0722
     19 C12        -1.2190    1.7507    0.0173 C.ar      1 <0>        -0.1044
     20 C13        -0.0126    1.0758    0.0080 C.ar      1 <0>        -0.1114
     21 C14         1.1750    1.7832    0.0004 C.ar      1 <0>        -0.1154
     22 C15         1.1563    3.1654    0.0076 C.ar      1 <0>        -0.1125
     23 C16        -0.0501    3.8402    0.0223 C.ar      1 <0>        -0.1046
     24 N4         -3.2901    2.8458   -2.0502 N.am      1 <0>        -0.7135
     25 C17        -2.2892    2.1538   -2.6297 C.2       1 <0>         0.5635
     26 O4         -1.1549    2.5905   -2.6058 O.2       1 <0>        -0.5114
     27 C18        -2.5704    0.8645   -3.2937 C.ar      1 <0>        -0.1346
     28 C19        -3.8728    0.3594   -3.3164 C.ar      1 <0>        -0.0813
     29 C20        -4.1347   -0.8394   -3.9406 C.ar      1 <0>        -0.1196
     30 C21        -3.0984   -1.5551   -4.5406 C.ar      1 <0>        -0.0143
     31 C22        -1.7965   -1.0546   -4.5131 C.ar      1 <0>        -0.1206
     32 C23        -1.5333    0.1468   -3.8945 C.ar      1 <0>        -0.0513
     33 C24        -3.3808   -2.8489   -5.2076 C.ar      1 <0>        -0.0566
     34 C25        -2.3485   -3.5640   -5.8128 C.ar      1 <0>        -0.1058
     35 C26        -2.6165   -4.7697   -6.4283 C.ar      1 <0>        -0.1183
     36 C27        -3.9083   -5.2640   -6.4543 C.ar      1 <0>        -0.1134
     37 C28        -4.9374   -4.5564   -5.8596 C.ar      1 <0>        -0.1186
     38 C29        -4.6805   -3.3519   -5.2369 C.ar      1 <0>        -0.1060
     39 H2         -3.7605    6.7047    1.9052 H         1 <0>         0.0779
     40 H3         -5.0305    7.2996    3.0013 H         1 <0>         0.1003
     41 H4         -5.4730    6.3855    1.5395 H         1 <0>         0.0918
     42 H5         -5.4849    9.4653   -1.8799 H         1 <0>         0.1764
     43 H6         -3.2912   12.1692    1.7589 H         1 <0>         0.0760
     44 H7         -4.9264   12.7545    1.3690 H         1 <0>         0.0953
     45 H8         -4.6384   11.8590    2.8801 H         1 <0>         0.0929
     46 H9         -5.7844    7.1919   -1.8296 H         1 <0>         0.1116
     47 H10        -6.2432    6.4846   -0.2619 H         1 <0>         0.1023
     48 H11        -3.4241    6.5329   -0.4256 H         1 <0>         0.4072
     49 H12        -3.2997    3.2667    0.5633 H         1 <0>         0.0840
     50 H13        -2.4307    4.8201    0.5628 H         1 <0>         0.0839
     51 H14        -2.1469    1.1980    0.0188 H         1 <0>         0.1107
     52 H15         0.0021   -0.0041    0.0020 H         1 <0>         0.1156
     53 H16         2.1175    1.2560   -0.0115 H         1 <0>         0.1169
     54 H17         2.0841    3.7181    0.0014 H         1 <0>         0.1177
     55 H18        -0.0647    4.9201    0.0276 H         1 <0>         0.1148
     56 H19        -4.1951    2.4973   -2.0692 H         1 <0>         0.4087
     57 H20        -4.6744    0.9111   -2.8481 H         1 <0>         0.1284
     58 H21        -5.1421   -1.2281   -3.9618 H         1 <0>         0.1322
     59 H22        -0.9949   -1.6096   -4.9776 H         1 <0>         0.1328
     60 H23        -0.5253    0.5341   -3.8734 H         1 <0>         0.1384
     61 H24        -1.3403   -3.1771   -5.7967 H         1 <0>         0.1269
     62 H25        -1.8169   -5.3265   -6.8943 H         1 <0>         0.1261
     63 H26        -4.1141   -6.2059   -6.9411 H         1 <0>         0.1245
     64 H27        -5.9440   -4.9471   -5.8829 H         1 <0>         0.1260
     65 H28        -5.4849   -2.8000   -4.7736 H         1 <0>         0.1266
@<TRIPOS>BOND
     1    1    2 1
     2    1   39 1
     3    1   40 1
     4    1   41 1
     5    2    8 am
     6    2    3 1
     7    3    4 2
     8    3   11 1
     9    4    5 1
    10    4   42 1
    11    5    6 2
    12    5    7 am
    13    7    8 am
    14    7   10 1
    15    8    9 2
    16   10   43 1
    17   10   44 1
    18   10   45 1
    19   11   12 1
    20   11   46 1
    21   11   47 1
    22   12   13 am
    23   12   48 1
    24   13   14 2
    25   13   15 1
    26   15   16 1
    27   15   17 1
    28   15   24 1
    29   17   18 1
    30   17   49 1
    31   17   50 1
    32   18   23 ar
    33   18   19 ar
    34   19   20 ar
    35   19   51 1
    36   20   21 ar
    37   20   52 1
    38   21   22 ar
    39   21   53 1
    40   22   23 ar
    41   22   54 1
    42   23   55 1
    43   24   25 am
    44   24   56 1
    45   25   26 2
    46   25   27 1
    47   27   32 ar
    48   27   28 ar
    49   28   29 ar
    50   28   57 1
    51   29   30 ar
    52   29   58 1
    53   30   31 ar
    54   30   33 1
    55   31   32 ar
    56   31   59 1
    57   32   60 1
    58   33   38 ar
    59   33   34 ar
    60   34   35 ar
    61   34   61 1
    62   35   36 ar
    63   35   62 1
    64   36   37 ar
    65   36   63 1
    66   37   38 ar
    67   37   64 1
    68   38   65 1
@<TRIPOS>MOLECULE
ZINC20530471
   54    57     0     0     0
SMALL
USER_CHARGES
(3R)-1-[(2-oxo-1H-quinolin-6-yl)sulfonyl]-N-[4-(trifluoromethoxy)phenyl]piperidine-3-carboxamide
@<TRIPOS>ATOM
      1 C1         -5.9788    7.5365    6.4898 C.ar      1 <0>        -0.1037
      2 C2         -5.5729    8.5355    7.3525 C.ar      1 <0>        -0.1705
      3 C3         -4.4335    9.2749    7.0708 C.ar      1 <0>         0.0883
      4 C4         -3.6980    9.0076    5.9254 C.ar      1 <0>        -0.1027
      5 C5         -4.0996    8.0051    5.0648 C.ar      1 <0>        -0.0867
      6 C6         -5.2399    7.2646    5.3462 C.ar      1 <0>         0.1338
      7 N1         -5.6480    6.2473    4.4735 N.am      1 <0>        -0.6832
      8 C7         -4.7276    5.5035    3.8283 C.2       1 <0>         0.5247
      9 O1         -3.5490    5.7684    3.9373 O.2       1 <0>        -0.5196
     10 C8         -5.1629    4.3427    2.9715 C.3       1 <0>        -0.1180
     11 H1         -5.8212    4.7227    2.1764 H         1 <0>         0.1108
     12 C9         -5.9168    3.3266    3.8325 C.3       1 <0>        -0.1108
     13 C10        -6.3877    2.1632    2.9569 C.3       1 <0>        -0.1319
     14 C11        -5.1746    1.4693    2.3402 C.3       1 <0>         0.1101
     15 N2         -4.3612    2.4672    1.6321 N.pl3     1 <0>        -0.9963
     16 C12        -3.9312    3.6709    2.3565 C.3       1 <0>         0.1334
     17 S1         -3.9430    2.2427    0.0456 S.o2      1 <0>         2.6935
     18 O2         -3.6902    3.5327   -0.4942 O.2       1 <0>        -0.9501
     19 O3         -4.9100    1.3611   -0.5085 O.2       1 <0>        -0.9493
     20 C13        -2.4068    1.3799    0.0288 C.ar      1 <0>        -0.7113
     21 C14        -2.3975   -0.0084    0.0153 C.ar      1 <0>         0.0238
     22 C15        -1.2078   -0.7037    0.0030 C.ar      1 <0>        -0.1797
     23 C16        -0.0023   -0.0092    0.0036 C.ar      1 <0>         0.2422
     24 C17        -0.0158    1.3982    0.0168 C.ar      1 <0>        -0.1564
     25 C18        -1.2355    2.0829    0.0350 C.ar      1 <0>         0.0532
     26 C19         1.2579    2.1201    0.0174 C.2       1 <0>        -0.0135
     27 C20         2.4088    1.4031    0.0060 C.2       1 <0>        -0.2150
     28 C21         2.3673   -0.0076   -0.0066 C.2       1 <0>         0.5369
     29 O4          3.4135   -0.6327   -0.0167 O.2       1 <0>        -0.5298
     30 N3          1.2025   -0.6792   -0.0081 N.am      1 <0>        -0.6444
     31 H2          1.2201   -1.7790   -0.0189 H         1 <0>         0.4463
     32 O5         -4.0377   10.2625    7.9174 O.3       1 <0>        -0.3096
     33 C22        -4.8421   10.4834    9.0777 C.3       1 <0>         0.6038
     34 F1         -4.8767    9.3174    9.8501 F         1 <0>        -0.1652
     35 F2         -4.2955   11.5267    9.8324 F         1 <0>        -0.1302
     36 F3         -6.1419   10.8222    8.6864 F         1 <0>        -0.1652
     37 H3         -6.8686    6.9641    6.7068 H         1 <0>         0.1370
     38 H4         -6.1451    8.7441    8.2444 H         1 <0>         0.1373
     39 H5         -2.8108    9.5834    5.7068 H         1 <0>         0.1431
     40 H6         -3.5271    7.7973    4.1730 H         1 <0>         0.1538
     41 H7         -6.7195    6.0557    4.3149 H         1 <0>         0.4376
     42 H8         -5.2491    2.9457    4.6193 H         1 <0>         0.0752
     43 H9         -6.7884    3.8129    4.2950 H         1 <0>         0.0745
     44 H10        -6.9485    1.4445    3.5726 H         1 <0>         0.0861
     45 H11        -7.0380    2.5463    2.1567 H         1 <0>         0.0752
     46 H12        -4.5768    1.0004    3.1356 H         1 <0>         0.0747
     47 H13        -5.5136    0.6978    1.6331 H         1 <0>         0.0997
     48 H14        -3.4412    4.3691    1.6619 H         1 <0>         0.1044
     49 H15        -3.2274    3.3940    3.1552 H         1 <0>         0.0851
     50 H16        -3.3324   -0.5490    0.0149 H         1 <0>         0.1488
     51 H17        -1.2112   -1.7836   -0.0074 H         1 <0>         0.1457
     52 H18        -1.2512    3.1627    0.0455 H         1 <0>         0.1527
     53 H19         1.2804    3.1998    0.0270 H         1 <0>         0.1523
     54 H20         3.3606    1.9134    0.0065 H         1 <0>         0.1591
@<TRIPOS>BOND
     1    1    6 ar
     2    1    2 ar
     3    1   37 1
     4    2    3 ar
     5    2   38 1
     6    3    4 ar
     7    3   32 1
     8    4    5 ar
     9    4   39 1
    10    5    6 ar
    11    5   40 1
    12    6    7 1
    13    7    8 am
    14    7   41 1
    15    8    9 2
    16    8   10 1
    17   10   11 1
    18   10   16 1
    19   10   12 1
    20   12   13 1
    21   12   42 1
    22   12   43 1
    23   13   14 1
    24   13   44 1
    25   13   45 1
    26   14   15 1
    27   14   46 1
    28   14   47 1
    29   15   16 1
    30   15   17 1
    31   16   48 1
    32   16   49 1
    33   17   18 2
    34   17   19 2
    35   17   20 1
    36   20   25 ar
    37   20   21 ar
    38   21   22 ar
    39   21   50 1
    40   22   23 ar
    41   22   51 1
    42   23   30 1
    43   23   24 ar
    44   24   25 ar
    45   24   26 1
    46   25   52 1
    47   26   27 2
    48   26   53 1
    49   27   28 1
    50   27   54 1
    51   28   29 2
    52   28   30 am
    53   30   31 1
    54   32   33 1
    55   33   34 1
    56   33   35 1
    57   33   36 1
@<TRIPOS>MOLECULE
ZINC32925005
   55    57     0     0     0
SMALL
USER_CHARGES
(3S)-N-[(1S)-2-(4-chloroanilino)-1-methyl-2-oxo-ethyl]-1-(5-chloro-2,4-dimethoxy-phenyl)-5-oxo-pyrrolidine-3-carboxamide
@<TRIPOS>ATOM
      1 C1         -2.8125    0.7269    1.4483 C.3       1 <0>        -0.1611
      2 C2         -2.4479    1.1143    0.0138 C.3       1 <0>         0.1342
      3 H1         -2.3001    0.2213   -0.6112 H         1 <0>         0.1177
      4 C3         -3.5429    1.9699   -0.5692 C.2       1 <0>         0.5170
      5 O1         -3.2968    3.0961   -0.9463 O.2       1 <0>        -0.5172
      6 N1         -4.7957    1.4837   -0.6717 N.am      1 <0>        -0.6807
      7 C4         -5.8322    2.3094   -1.1224 C.ar      1 <0>         0.1519
      8 C5         -7.1121    2.1650   -0.6034 C.ar      1 <0>        -0.1317
      9 C6         -8.1321    2.9839   -1.0466 C.ar      1 <0>        -0.0908
     10 C7         -7.8817    3.9412   -2.0140 C.ar      1 <0>        -0.0495
     11 C8         -6.6083    4.0836   -2.5366 C.ar      1 <0>        -0.0908
     12 C9         -5.5837    3.2705   -2.0934 C.ar      1 <0>        -0.1107
     13 Cl1        -9.1674    4.9648   -2.5734 Cl        1 <0>        -0.0678
     14 N2         -1.1900    1.8652    0.0155 N.am      1 <0>        -0.7299
     15 C10        -0.0131    1.2085   -0.0000 C.2       1 <0>         0.5175
     16 O2          0.0045   -0.0041   -0.0153 O.2       1 <0>        -0.5216
     17 C11         1.2808    1.9810   -0.0046 C.3       1 <0>        -0.1250
     18 H2          1.1957    2.6379   -0.8828 H         1 <0>         0.1303
     19 C12         1.4888    2.7200    1.3377 C.3       1 <0>        -0.1411
     20 C13         2.3125    1.7590    2.1664 C.2       1 <0>         0.5274
     21 O3          2.4578    1.8268    3.3688 O.2       1 <0>        -0.5144
     22 N3          2.8592    0.8187    1.3767 N.am      1 <0>        -0.5548
     23 C14         2.4947    1.0259   -0.0298 C.3       1 <0>         0.1206
     24 C15         3.6732   -0.2269    1.8377 C.ar      1 <0>         0.0816
     25 C16         5.0479   -0.0561    1.9105 C.ar      1 <0>        -0.0226
     26 C17         5.8494   -1.0844    2.3702 C.ar      1 <0>        -0.1027
     27 C18         5.2815   -2.2933    2.7489 C.ar      1 <0>         0.1883
     28 C19         3.9084   -2.4698    2.6722 C.ar      1 <0>        -0.2881
     29 C20         3.1024   -1.4391    2.2173 C.ar      1 <0>         0.1890
     30 O4          1.7556   -1.6110    2.1411 O.3       1 <0>        -0.2850
     31 C21         1.2395   -2.8802    2.5470 C.3       1 <0>         0.0223
     32 O5          6.0727   -3.3053    3.1951 O.3       1 <0>        -0.2976
     33 C22         5.4218   -4.5217    3.5675 C.3       1 <0>         0.0196
     34 Cl2         7.5689   -0.8662    2.4674 Cl        1 <0>        -0.0485
     35 H3         -2.0132    0.1024    1.8738 H         1 <0>         0.0783
     36 H4         -3.7570    0.1631    1.4470 H         1 <0>         0.0716
     37 H5         -2.9294    1.6368    2.0553 H         1 <0>         0.0668
     38 H6         -5.0037    0.4380   -0.4012 H         1 <0>         0.4400
     39 H7         -7.3090    1.4153    0.1487 H         1 <0>         0.1363
     40 H8         -9.1268    2.8747   -0.6404 H         1 <0>         0.1383
     41 H9         -6.4154    4.8315   -3.2915 H         1 <0>         0.1372
     42 H10        -4.5900    3.3823   -2.5013 H         1 <0>         0.1471
     43 H11        -1.2060    2.9650    0.0294 H         1 <0>         0.4335
     44 H12         2.0179    3.6672    1.1566 H         1 <0>         0.1229
     45 H13         0.5112    2.9281    1.7970 H         1 <0>         0.1087
     46 H14         2.2077    0.0808   -0.5140 H         1 <0>         0.1005
     47 H15         3.3163    1.4919   -0.5935 H         1 <0>         0.0867
     48 H16         5.4918    0.8822    1.6121 H         1 <0>         0.1500
     49 H17         3.4674   -3.4105    2.9674 H         1 <0>         0.1483
     50 H18         0.1451   -2.8836    2.4358 H         1 <0>         0.1052
     51 H19         1.5017   -3.0630    3.5995 H         1 <0>         0.0562
     52 H20         1.6744   -3.6710    1.9181 H         1 <0>         0.0579
     53 H21         6.1727   -5.2502    3.9073 H         1 <0>         0.1091
     54 H22         4.8819   -4.9291    2.7000 H         1 <0>         0.0598
     55 H23         4.7098   -4.3221    4.3819 H         1 <0>         0.0597
@<TRIPOS>BOND
     1    1    2 1
     2    1   35 1
     3    1   36 1
     4    1   37 1
     5    2    3 1
     6    2    4 1
     7    2   14 1
     8    4    5 2
     9    4    6 am
    10    6    7 1
    11    6   38 1
    12    7   12 ar
    13    7    8 ar
    14    8    9 ar
    15    8   39 1
    16    9   10 ar
    17    9   40 1
    18   10   11 ar
    19   10   13 1
    20   11   12 ar
    21   11   41 1
    22   12   42 1
    23   14   15 am
    24   14   43 1
    25   15   16 2
    26   15   17 1
    27   17   18 1
    28   17   23 1
    29   17   19 1
    30   19   20 1
    31   19   44 1
    32   19   45 1
    33   20   21 2
    34   20   22 am
    35   22   23 1
    36   22   24 1
    37   23   46 1
    38   23   47 1
    39   24   29 ar
    40   24   25 ar
    41   25   26 ar
    42   25   48 1
    43   26   27 ar
    44   26   34 1
    45   27   28 ar
    46   27   32 1
    47   28   29 ar
    48   28   49 1
    49   29   30 1
    50   30   31 1
    51   31   50 1
    52   31   51 1
    53   31   52 1
    54   32   33 1
    55   33   53 1
    56   33   54 1
    57   33   55 1
@<TRIPOS>MOLECULE
ZINC39877096
   57    61     0     0     0
SMALL
USER_CHARGES

@<TRIPOS>ATOM
      1 C1         -0.0187    1.5258    0.0104 C.3       1 <0>        -0.1532
      2 C2          0.0021   -0.0041    0.0020 C.3       1 <0>         0.0530
      3 O1          0.6709   -0.4649   -1.1737 O.3       1 <0>        -0.3145
      4 C3          0.7768   -1.8106   -1.3362 C.ar      1 <0>         0.1192
      5 C4          0.2422   -2.6680   -0.3854 C.ar      1 <0>        -0.1803
      6 C5          0.3496   -4.0347   -0.5494 C.ar      1 <0>        -0.1047
      7 C6          0.9928   -4.5512   -1.6670 C.ar      1 <0>         0.1306
      8 C7          1.5273   -3.6921   -2.6186 C.ar      1 <0>        -0.0982
      9 C8          1.4144   -2.3257   -2.4556 C.ar      1 <0>        -0.1238
     10 N1          1.1025   -5.9362   -1.8338 N.am      1 <0>        -0.5278
     11 C9          1.7586   -6.6225   -2.9588 C.3       1 <0>         0.2312
     12 H1          1.2654   -6.3644   -3.8959 H         1 <0>         0.1278
     13 C10         1.6127   -8.0834   -2.6851 C.2       1 <0>        -0.2419
     14 C11         2.0514   -9.2574   -3.4458 C.2       1 <0>         0.4588
     15 O2          2.7979   -9.1892   -4.4063 O.2       1 <0>        -0.4213
     16 C12         1.4989  -10.5374   -2.9347 C.ar      1 <0>        -0.1849
     17 C13         1.6590  -11.7157   -3.6636 C.ar      1 <0>        -0.0671
     18 C14         1.1349  -12.8946   -3.1765 C.ar      1 <0>         0.0817
     19 C15         0.4513  -12.9042   -1.9661 C.ar      1 <0>        -0.0865
     20 C16         0.2897  -11.7470   -1.2389 C.ar      1 <0>        -0.1023
     21 C17         0.8128  -10.5428   -1.7094 C.ar      1 <0>         0.1325
     22 O3          0.6476   -9.4224   -0.9690 O.3       1 <0>        -0.1756
     23 C18         0.9378   -8.2206   -1.5048 C.2       1 <0>         0.0940
     24 C19         0.6309   -6.8758   -0.9891 C.2       1 <0>         0.5678
     25 O4          0.0368   -6.6461    0.0459 O.2       1 <0>        -0.4695
     26 F1          1.2856  -14.0405   -3.8761 F         1 <0>        -0.1262
     27 C20         3.2166   -6.2462   -3.0184 C.ar      1 <0>        -0.1402
     28 C21         3.9481   -6.1314   -1.8507 C.ar      1 <0>        -0.0514
     29 C22         5.2847   -5.7861   -1.9027 C.ar      1 <0>        -0.1425
     30 C23         5.8931   -5.5549   -3.1278 C.ar      1 <0>         0.1435
     31 C24         5.1570   -5.6712   -4.2981 C.ar      1 <0>        -0.2067
     32 C25         3.8220   -6.0218   -4.2410 C.ar      1 <0>        -0.0439
     33 O5          7.2077   -5.2147   -3.1816 O.3       1 <0>        -0.2874
     34 C26         7.7676   -4.9916   -4.4772 C.3       1 <0>         0.0379
     35 C27         9.2234   -4.6269   -4.3393 C.2       1 <0>         0.5191
     36 O6          9.7313   -4.5643   -3.2398 O.2       1 <0>        -0.5161
     37 N2          9.9608   -4.3704   -5.4379 N.am      1 <0>        -0.8498
     38 H2          1.0039    1.9031    0.0027 H         1 <0>         0.0669
     39 H3         -0.5459    1.8868   -0.8726 H         1 <0>         0.0668
     40 H4         -0.5289    1.8773    0.9072 H         1 <0>         0.0795
     41 H5          0.5293   -0.3651    0.8851 H         1 <0>         0.0633
     42 H6         -1.0205   -0.3814    0.0098 H         1 <0>         0.0632
     43 H7         -0.2579   -2.2662    0.4834 H         1 <0>         0.1354
     44 H8         -0.0660   -4.7019    0.1911 H         1 <0>         0.1559
     45 H9          2.0279   -4.0929   -3.4876 H         1 <0>         0.1362
     46 H10         1.8264   -1.6577   -3.1974 H         1 <0>         0.1385
     47 H11         2.1899  -11.7049   -4.6041 H         1 <0>         0.1593
     48 H12         0.0418  -13.8309   -1.5920 H         1 <0>         0.1584
     49 H13        -0.2446  -11.7714   -0.3006 H         1 <0>         0.1601
     50 H14         3.4740   -6.3115   -0.8972 H         1 <0>         0.1231
     51 H15         5.8555   -5.6959   -0.9902 H         1 <0>         0.1366
     52 H16         5.6284   -5.4917   -5.2531 H         1 <0>         0.1336
     53 H17         3.2497   -6.1167   -5.1520 H         1 <0>         0.1331
     54 H18         7.6753   -5.8989   -5.0741 H         1 <0>         0.0971
     55 H19         7.2342   -4.1777   -4.9683 H         1 <0>         0.0972
     56 H20         9.5545   -4.4205   -6.3173 H         1 <0>         0.4039
     57 H21        10.8978   -4.1358   -5.3492 H         1 <0>         0.4106
@<TRIPOS>BOND
     1    1    2 1
     2    1   38 1
     3    1   39 1
     4    1   40 1
     5    2    3 1
     6    2   41 1
     7    2   42 1
     8    3    4 1
     9    4    9 ar
    10    4    5 ar
    11    5    6 ar
    12    5   43 1
    13    6    7 ar
    14    6   44 1
    15    7    8 ar
    16    7   10 1
    17    8    9 ar
    18    8   45 1
    19    9   46 1
    20   10   24 am
    21   10   11 1
    22   11   12 1
    23   11   13 1
    24   11   27 1
    25   13   23 2
    26   13   14 1
    27   14   15 2
    28   14   16 1
    29   16   21 ar
    30   16   17 ar
    31   17   18 ar
    32   17   47 1
    33   18   19 ar
    34   18   26 1
    35   19   20 ar
    36   19   48 1
    37   20   21 ar
    38   20   49 1
    39   21   22 1
    40   22   23 1
    41   23   24 1
    42   24   25 2
    43   27   32 ar
    44   27   28 ar
    45   28   29 ar
    46   28   50 1
    47   29   30 ar
    48   29   51 1
    49   30   31 ar
    50   30   33 1
    51   31   32 ar
    52   31   52 1
    53   32   53 1
    54   33   34 1
    55   34   35 1
    56   34   54 1
    57   34   55 1
    58   35   36 2
    59   35   37 am
    60   37   56 1
    61   37   57 1
@<TRIPOS>MOLECULE
ZINC01117116
   44    46     0     0     0
SMALL
USER_CHARGES
N-[4-[(3,4-dimethylisoxazol-5-yl)sulfamoyl]phenyl]-3-(2-furyl)prop-2-enamide
@<TRIPOS>ATOM
      1 C1         -9.8687   -5.3285   -4.9779 C.3       1 <0>        -0.0730
      2 C2         -8.7434   -5.6189   -4.0186 C.2       1 <0>        -0.2261
      3 C3         -7.5248   -6.2743   -4.2827 C.2       1 <0>         0.0506
      4 N1         -6.8670   -6.3030   -3.1575 N.2       1 <0>        -0.3545
      5 O1         -7.4824   -5.7713   -2.2629 O.3       1 <0>         0.0877
      6 C4         -8.6666   -5.3052   -2.6905 C.2       1 <0>         0.2092
      7 N2         -9.6198   -4.6454   -1.9372 N.pl3     1 <0>        -0.9995
      8 S1         -9.3509   -4.3587   -0.3285 S.o2      1 <0>         2.6805
      9 O2         -8.9249   -5.5903    0.2379 O.2       1 <0>        -0.9271
     10 O3        -10.4850   -3.6506    0.1529 O.2       1 <0>        -0.9350
     11 C5         -7.9830   -3.2537   -0.2178 C.ar      1 <0>        -0.6999
     12 C6         -8.1980   -1.8876   -0.2154 C.ar      1 <0>         0.0062
     13 C7         -7.1280   -1.0187   -0.1288 C.ar      1 <0>        -0.1699
     14 C8         -5.8347   -1.5184   -0.0441 C.ar      1 <0>         0.2151
     15 C9         -5.6219   -2.8910   -0.0521 C.ar      1 <0>        -0.1421
     16 C10        -6.6967   -3.7544   -0.1332 C.ar      1 <0>         0.0122
     17 N3         -4.7492   -0.6416    0.0432 N.am      1 <0>        -0.6744
     18 C11        -3.6594   -0.9873    0.7568 C.2       1 <0>         0.5554
     19 O4         -3.6572   -2.0193    1.4036 O.2       1 <0>        -0.5179
     20 C12        -2.5178   -0.1513    0.7546 C.2       1 <0>        -0.2297
     21 C13        -1.4209   -0.4992    1.4728 C.2       1 <0>         0.0391
     22 C14        -0.2785    0.3373    1.4705 C.2       1 <0>        -0.0281
     23 C15         0.8989    0.1072    2.1517 C.2       1 <0>        -0.1463
     24 C16         1.7458    1.1877    1.8613 C.2       1 <0>        -0.2205
     25 C17         1.0689    2.0152    1.0343 C.2       1 <0>        -0.0075
     26 O5         -0.1469    1.5017    0.8013 O.3       1 <0>        -0.1656
     27 C18        -7.0731   -6.8381   -5.6053 C.3       1 <0>        -0.0786
     28 H1         -9.7049   -4.3583   -5.4470 H         1 <0>         0.0735
     29 H2         -9.9010   -6.1022   -5.7450 H         1 <0>         0.0774
     30 H3        -10.8141   -5.3149   -4.4356 H         1 <0>         0.0682
     31 H4        -10.4461   -4.3505   -2.3509 H         1 <0>         0.4462
     32 H5         -9.2038   -1.4998   -0.2810 H         1 <0>         0.1469
     33 H6         -7.2967    0.0480   -0.1266 H         1 <0>         0.1395
     34 H7         -4.6173   -3.2826    0.0096 H         1 <0>         0.1474
     35 H8         -6.5322   -4.8218   -0.1349 H         1 <0>         0.1488
     36 H9         -4.7805    0.2156   -0.4098 H         1 <0>         0.4173
     37 H10        -2.5197    0.7638    0.1810 H         1 <0>         0.1353
     38 H11        -1.4189   -1.4144    2.0463 H         1 <0>         0.1632
     39 H12         1.1247   -0.7387    2.7840 H         1 <0>         0.1599
     40 H13         2.7508    1.3313    2.2298 H         1 <0>         0.1573
     41 H14         1.4471    2.9410    0.6266 H         1 <0>         0.2101
     42 H15        -7.4027   -7.8736   -5.6904 H         1 <0>         0.0847
     43 H16        -7.5044   -6.2517   -6.4166 H         1 <0>         0.0844
     44 H17        -5.9856   -6.7968   -5.6654 H         1 <0>         0.0797
@<TRIPOS>BOND
     1    1    2 1
     2    1   28 1
     3    1   29 1
     4    1   30 1
     5    2    6 2
     6    2    3 1
     7    3    4 2
     8    3   27 1
     9    4    5 1
    10    5    6 1
    11    6    7 1
    12    7    8 1
    13    7   31 1
    14    8    9 2
    15    8   10 2
    16    8   11 1
    17   11   16 ar
    18   11   12 ar
    19   12   13 ar
    20   12   32 1
    21   13   14 ar
    22   13   33 1
    23   14   15 ar
    24   14   17 1
    25   15   16 ar
    26   15   34 1
    27   16   35 1
    28   17   18 am
    29   17   36 1
    30   18   19 2
    31   18   20 1
    32   20   21 2
    33   20   37 1
    34   21   22 1
    35   21   38 1
    36   22   26 1
    37   22   23 2
    38   23   24 1
    39   23   39 1
    40   24   25 2
    41   24   40 1
    42   25   26 1
    43   25   41 1
    44   27   42 1
    45   27   43 1
    46   27   44 1
@<TRIPOS>MOLECULE
ZINC04278407
   53    55     0     0     0
SMALL
USER_CHARGES
[2-[[(1S,2R,3R)-2,3-dimethylcyclohexyl]amino]-2-oxo-ethyl] 2-(1,4-dioxo-3H-phthalazin-2-yl)acetate
@<TRIPOS>ATOM
      1 C1          4.1039    8.6986   -1.2097 C.3       1 <0>        -0.1500
      2 C2          2.8898    8.0018   -0.5922 C.3       1 <0>        -0.0837
      3 H1          1.9988    8.2428   -1.1719 H         1 <0>         0.0731
      4 C3          2.7055    8.4805    0.8492 C.3       1 <0>        -0.1194
      5 C4          1.4914    7.7837    1.4667 C.3       1 <0>        -0.1172
      6 C5          1.7124    6.2698    1.4565 C.3       1 <0>        -0.1320
      7 C6          1.8968    5.7910    0.0150 C.3       1 <0>         0.1526
      8 H2          1.0057    6.0321   -0.5646 H         1 <0>         0.0907
      9 C7          3.1108    6.4879   -0.6025 C.3       1 <0>        -0.0933
     10 H3          3.2422    6.1468   -1.6294 H         1 <0>         0.0769
     11 C8          4.3616    6.1495    0.2112 C.3       1 <0>        -0.1571
     12 N1          2.1084    4.3414    0.0052 N.am      1 <0>        -0.7224
     13 C9          1.0508    3.5060    0.0109 C.2       1 <0>         0.5164
     14 O1         -0.0760    3.9542    0.0240 O.2       1 <0>        -0.5123
     15 C10         1.2685    2.0148    0.0008 C.3       1 <0>         0.0484
     16 O2         -0.0161    1.3381    0.0094 O.3       1 <0>        -0.3265
     17 C11         0.0021   -0.0041    0.0020 C.2       1 <0>         0.4444
     18 O3          1.0565   -0.5939   -0.0112 O.2       1 <0>        -0.4897
     19 C12        -1.2926   -0.7753    0.0102 C.3       1 <0>         0.1242
     20 N2         -1.0054   -2.2118   -0.0002 N.am      1 <0>        -0.3914
     21 C13        -0.8606   -2.8577    1.1732 C.2       1 <0>         0.5723
     22 O4         -0.9680   -2.2535    2.2223 O.2       1 <0>        -0.5030
     23 C14        -0.5751   -4.3090    1.1748 C.ar      1 <0>        -0.1050
     24 C15        -0.4221   -5.0190    2.3573 C.ar      1 <0>        -0.0596
     25 C16        -0.1508   -6.3754    2.3106 C.ar      1 <0>        -0.0964
     26 C17        -0.0312   -7.0270    1.0958 C.ar      1 <0>        -0.0955
     27 C18        -0.1810   -6.3330   -0.0923 C.ar      1 <0>        -0.0604
     28 C19        -0.4533   -4.9725   -0.0622 C.ar      1 <0>        -0.1067
     29 C20        -0.6213   -4.1879   -1.3047 C.2       1 <0>         0.5691
     30 O5         -0.5223   -4.7286   -2.3887 O.2       1 <0>        -0.5075
     31 N3         -0.8844   -2.8689   -1.2254 N.am      1 <0>        -0.5026
     32 H4         -0.9933   -2.3608   -2.0445 H         1 <0>         0.4290
     33 H5          4.9950    8.4576   -0.6301 H         1 <0>         0.0590
     34 H6          4.2352    8.3576   -2.2366 H         1 <0>         0.0549
     35 H7          3.9465    9.7772   -1.2024 H         1 <0>         0.0568
     36 H8          2.5480    9.5591    0.8565 H         1 <0>         0.0649
     37 H9          3.5965    8.2395    1.4289 H         1 <0>         0.0670
     38 H10         0.6003    8.0248    0.8870 H         1 <0>         0.0649
     39 H11         1.3601    8.1248    2.4936 H         1 <0>         0.0666
     40 H12         0.8475    5.7734    1.8964 H         1 <0>         0.0676
     41 H13         2.6035    6.0288    2.0362 H         1 <0>         0.0682
     42 H14         4.5190    5.0710    0.2039 H         1 <0>         0.0504
     43 H15         5.2265    6.6460   -0.2287 H         1 <0>         0.0645
     44 H16         4.2303    6.4906    1.2381 H         1 <0>         0.0665
     45 H17         3.0096    3.9829   -0.0053 H         1 <0>         0.4015
     46 H18         1.8379    1.7248    0.8838 H         1 <0>         0.1042
     47 H19         1.8209    1.7343   -0.8960 H         1 <0>         0.1035
     48 H20        -1.8592   -0.5245    0.9070 H         1 <0>         0.1561
     49 H21        -1.8762   -0.5150   -0.8728 H         1 <0>         0.1403
     50 H22        -0.5147   -4.5161    3.3086 H         1 <0>         0.1471
     51 H23        -0.0311   -6.9296    3.2298 H         1 <0>         0.1416
     52 H24         0.1811   -8.0857    1.0746 H         1 <0>         0.1415
     53 H25        -0.0869   -6.8473   -1.0373 H         1 <0>         0.1476
@<TRIPOS>BOND
     1    1    2 1
     2    1   33 1
     3    1   34 1
     4    1   35 1
     5    2    3 1
     6    2    9 1
     7    2    4 1
     8    4    5 1
     9    4   36 1
    10    4   37 1
    11    5    6 1
    12    5   38 1
    13    5   39 1
    14    6    7 1
    15    6   40 1
    16    6   41 1
    17    7    8 1
    18    7    9 1
    19    7   12 1
    20    9   10 1
    21    9   11 1
    22   11   42 1
    23   11   43 1
    24   11   44 1
    25   12   13 am
    26   12   45 1
    27   13   14 2
    28   13   15 1
    29   15   16 1
    30   15   46 1
    31   15   47 1
    32   16   17 1
    33   17   18 2
    34   17   19 1
    35   19   20 1
    36   19   48 1
    37   19   49 1
    38   20   31 1
    39   20   21 am
    40   21   22 2
    41   21   23 1
    42   23   28 ar
    43   23   24 ar
    44   24   25 ar
    45   24   50 1
    46   25   26 ar
    47   25   51 1
    48   26   27 ar
    49   26   52 1
    50   27   28 ar
    51   27   53 1
    52   28   29 1
    53   29   30 2
    54   29   31 am
    55   31   32 1
@<TRIPOS>MOLECULE
ZINC32594159
   49    52     0     0     0
SMALL
USER_CHARGES
N-allyl-2-[[3-(tetrazol-1-yl)benzoyl]amino]-4,5,6,7-tetrahydrobenzothiophene-3-carboxamide
@<TRIPOS>ATOM
      1 C1          7.0228   -0.8303    2.9171 C.2       1 <0>        -0.1639
      2 C2          6.3245    0.2079    2.5292 C.2       1 <0>        -0.1837
      3 C3          5.8129    0.2857    1.1138 C.3       1 <0>         0.1472
      4 N1          4.3622    0.4895    1.1294 N.am      1 <0>        -0.7320
      5 C4          3.6833    0.5897   -0.0306 C.2       1 <0>         0.5801
      6 O1          4.2754    0.5109   -1.0910 O.2       1 <0>        -0.5343
      7 C5          2.2315    0.7938   -0.0149 C.2       1 <0>        -0.2216
      8 C6          1.3125   -0.3316   -0.0120 C.2       1 <0>        -0.0658
      9 C7          0.0021   -0.0041    0.0020 C.2       1 <0>        -0.2067
     10 S1         -0.0219    1.7661    0.0118 S.3       1 <0>         0.2254
     11 C8          1.6839    2.0692   -0.0029 C.2       1 <0>         0.0757
     12 N2          2.3417    3.2885   -0.0031 N.am      1 <0>        -0.6266
     13 C9          1.6345    4.4357    0.0099 C.2       1 <0>         0.5574
     14 O2          0.4195    4.4006    0.0217 O.2       1 <0>        -0.4882
     15 C10         2.3362    5.7365    0.0097 C.ar      1 <0>        -0.1084
     16 C11         3.7320    5.7797    0.0020 C.ar      1 <0>        -0.0765
     17 C12         4.3841    6.9955   -0.0035 C.ar      1 <0>        -0.0935
     18 C13         3.6603    8.1735    0.0103 C.ar      1 <0>        -0.0910
     19 C14         2.2716    8.1411    0.0233 C.ar      1 <0>         0.1301
     20 C15         1.6067    6.9253    0.0231 C.ar      1 <0>        -0.0401
     21 N3          1.5423    9.3393    0.0362 N.pl3     1 <0>        -0.3341
     22 C16         2.0325   10.5979    0.0383 C.2       1 <0>         0.2300
     23 N4          1.0102   11.4127    0.0520 N.2       1 <0>        -0.3245
     24 N5         -0.0929   10.7552    0.0587 N.2       1 <0>        -0.0267
     25 N6          0.1441    9.4877    0.0437 N.2       1 <0>        -0.0689
     26 C17        -1.1638   -0.9440    0.0069 C.3       1 <0>        -0.0377
     27 C18        -0.6604   -2.3411   -0.3841 C.3       1 <0>        -0.1155
     28 C19         0.5901   -2.6632    0.4392 C.3       1 <0>        -0.1182
     29 C20         1.7569   -1.7890   -0.0237 C.3       1 <0>        -0.0604
     30 H1          7.3962   -0.8871    3.9502 H         1 <0>         0.1070
     31 H2          7.2358   -1.6453    2.2097 H         1 <0>         0.1030
     32 H3          6.1115    1.0229    3.2366 H         1 <0>         0.1176
     33 H4          6.2958    1.1270    0.5951 H         1 <0>         0.0740
     34 H5          6.0458   -0.6518    0.5876 H         1 <0>         0.0713
     35 H6          3.8271    0.5607    2.0878 H         1 <0>         0.4248
     36 H7          3.4412    3.3203   -0.0139 H         1 <0>         0.4421
     37 H8          4.3008    4.8616   -0.0042 H         1 <0>         0.1365
     38 H9          5.4636    7.0272   -0.0136 H         1 <0>         0.1521
     39 H10         4.1764    9.1222    0.0105 H         1 <0>         0.1456
     40 H11         0.5270    6.8984    0.0328 H         1 <0>         0.1594
     41 H12         3.0753   10.8789    0.0299 H         1 <0>         0.2420
     42 H13        -1.6083   -0.9716    1.0127 H         1 <0>         0.0834
     43 H14        -1.9164   -0.5985   -0.7171 H         1 <0>         0.0816
     44 H15        -1.4445   -3.0844   -0.1775 H         1 <0>         0.0748
     45 H16        -0.4148   -2.3556   -1.4562 H         1 <0>         0.0689
     46 H17         0.3893   -2.4672    1.5028 H         1 <0>         0.0674
     47 H18         0.8546   -3.7225    0.3051 H         1 <0>         0.0704
     48 H19         2.0543   -2.0735   -1.0438 H         1 <0>         0.0784
     49 H20         2.6118   -1.9172    0.6566 H         1 <0>         0.0719
@<TRIPOS>BOND
     1    1    2 2
     2    1   30 1
     3    1   31 1
     4    2    3 1
     5    2   32 1
     6    3    4 1
     7    3   33 1
     8    3   34 1
     9    4    5 am
    10    4   35 1
    11    5    6 2
    12    5    7 1
    13    7   11 2
    14    7    8 1
    15    8   29 1
    16    8    9 2
    17    9   10 1
    18    9   26 1
    19   10   11 1
    20   11   12 1
    21   12   13 am
    22   12   36 1
    23   13   14 2
    24   13   15 1
    25   15   20 ar
    26   15   16 ar
    27   16   17 ar
    28   16   37 1
    29   17   18 ar
    30   17   38 1
    31   18   19 ar
    32   18   39 1
    33   19   20 ar
    34   19   21 1
    35   20   40 1
    36   21   25 1
    37   21   22 1
    38   22   23 2
    39   22   41 1
    40   23   24 1
    41   24   25 2
    42   26   27 1
    43   26   42 1
    44   26   43 1
    45   27   28 1
    46   27   44 1
    47   27   45 1
    48   28   29 1
    49   28   46 1
    50   28   47 1
    51   29   48 1
    52   29   49 1
@<TRIPOS>MOLECULE
ZINC50288458
   44    46     0     0     0
SMALL
USER_CHARGES

@<TRIPOS>ATOM
      1 C1         -0.0187    1.5258    0.0104 C.3       1 <0>        -0.1486
      2 C2          0.0021   -0.0041    0.0020 C.3       1 <0>        -0.1395
      3 C3          0.7421   -0.5109    1.2415 C.3       1 <0>         0.1088
      4 N1          0.7619   -1.9757    1.2335 N.am      1 <0>        -0.3563
      5 C4          1.7967   -2.5968    0.6308 C.2       1 <0>         0.5162
      6 O1          2.6896   -1.9551    0.1084 O.2       1 <0>        -0.4924
      7 C5          1.8212   -4.0660    0.6200 C.ar      1 <0>        -0.1396
      8 C6          2.8421   -4.8005    0.0252 C.ar      1 <0>        -0.0526
      9 C7          2.7909   -6.1778    0.0579 C.ar      1 <0>        -0.1138
     10 C8          1.7348   -6.8344    0.6761 C.ar      1 <0>        -0.0850
     11 C9          0.7135   -6.1245    1.2712 C.ar      1 <0>        -0.0963
     12 C10         0.7457   -4.7344    1.2496 C.ar      1 <0>        -0.0315
     13 C11        -0.3039   -3.9029    1.8605 C.2       1 <0>         0.0583
     14 N2         -0.2004   -2.5974    1.8029 N.2       1 <0>        -0.1883
     15 C12        -1.4570   -4.5317    2.5348 C.2       1 <0>         0.5995
     16 O2         -1.5437   -5.7433    2.5878 O.2       1 <0>        -0.5220
     17 N3         -2.4136   -3.7627    3.0915 N.am      1 <0>        -0.5012
     18 N4         -3.5079   -4.3594    3.7314 N.am      1 <0>        -0.5164
     19 C13        -4.4645   -3.5904    4.2881 C.2       1 <0>         0.5571
     20 O3         -4.3777   -2.3771    4.2350 O.2       1 <0>        -0.5432
     21 C14        -5.5713   -4.1940    4.9353 C.2       1 <0>        -0.1965
     22 C15        -6.5311   -3.4224    5.4939 C.2       1 <0>         0.0294
     23 C16        -7.6770   -4.0473    6.1640 C.2       1 <0>         0.0417
     24 C17        -8.6854   -3.3016    6.7447 C.2       1 <0>        -0.2743
     25 S1         -9.7097   -4.4890    7.3472 S.3       1 <0>         0.2643
     26 C18        -8.8611   -5.8539    6.8633 C.2       1 <0>        -0.0217
     27 N5         -7.8155   -5.3751    6.2469 N.2       1 <0>        -0.4785
     28 H1          1.0039    1.9031    0.0027 H         1 <0>         0.0602
     29 H2         -0.5459    1.8868   -0.8726 H         1 <0>         0.0636
     30 H3         -0.5289    1.8773    0.9072 H         1 <0>         0.0609
     31 H4         -1.0205   -0.3814    0.0098 H         1 <0>         0.0720
     32 H5          0.5123   -0.3556   -0.8948 H         1 <0>         0.0693
     33 H6          1.7647   -0.1336    1.2338 H         1 <0>         0.1081
     34 H7          0.2319   -0.1594    2.1383 H         1 <0>         0.1048
     35 H8          3.6664   -4.2967   -0.4577 H         1 <0>         0.1434
     36 H9          3.5808   -6.7526   -0.4028 H         1 <0>         0.1376
     37 H10         1.7130   -7.9141    0.6906 H         1 <0>         0.1376
     38 H11        -0.1038   -6.6433    1.7501 H         1 <0>         0.1707
     39 H12        -2.3445   -2.7961    3.0492 H         1 <0>         0.4413
     40 H13        -3.5770   -5.3260    3.7737 H         1 <0>         0.4361
     41 H14        -5.6483   -5.2702    4.9824 H         1 <0>         0.1433
     42 H15        -6.4542   -2.3462    5.4468 H         1 <0>         0.1491
     43 H16        -8.7884   -2.2278    6.7982 H         1 <0>         0.2032
     44 H17        -9.1226   -6.8897    7.0218 H         1 <0>         0.2213
@<TRIPOS>BOND
     1    1    2 1
     2    1   28 1
     3    1   29 1
     4    1   30 1
     5    2    3 1
     6    2   31 1
     7    2   32 1
     8    3    4 1
     9    3   33 1
    10    3   34 1
    11    4   14 1
    12    4    5 am
    13    5    6 2
    14    5    7 1
    15    7   12 ar
    16    7    8 ar
    17    8    9 ar
    18    8   35 1
    19    9   10 ar
    20    9   36 1
    21   10   11 ar
    22   10   37 1
    23   11   12 ar
    24   11   38 1
    25   12   13 1
    26   13   14 2
    27   13   15 1
    28   15   16 2
    29   15   17 am
    30   17   18 1
    31   17   39 1
    32   18   19 am
    33   18   40 1
    34   19   20 2
    35   19   21 1
    36   21   22 2
    37   21   41 1
    38   22   23 1
    39   22   42 1
    40   23   27 1
    41   23   24 2
    42   24   25 1
    43   24   43 1
    44   25   26 1
    45   26   27 2
    46   26   44 1
@<TRIPOS>MOLECULE
ZINC66444668
   39    40     0     0     0
SMALL
USER_CHARGES

@<TRIPOS>ATOM
      1 C1         -0.6559    1.4540    0.3919 C.3       1 <0>         0.0699
      2 N1         -0.4558    0.0085    0.2634 N.pl3     1 <0>        -0.7035
      3 C2          0.3206   -0.6704    1.1936 C.ar      1 <0>         0.3207
      4 C3          1.0103    0.0325    2.1738 C.ar      1 <0>        -0.2030
      5 C4          1.7812   -0.6441    3.0963 C.ar      1 <0>         0.0226
      6 C5          1.8742   -2.0265    3.0544 C.ar      1 <0>        -0.1209
      7 C6          1.1978   -2.7407    2.0902 C.ar      1 <0>         0.0364
      8 C7          0.4080   -2.0707    1.1520 C.ar      1 <0>        -0.2337
      9 C8         -0.3238   -2.8292    0.1215 C.2       1 <0>         0.5844
     10 O1         -0.9242   -2.2392   -0.7562 O.2       1 <0>        -0.5265
     11 N2         -0.3275   -4.1766    0.1520 N.am      1 <0>        -0.6650
     12 C9         -0.9292   -4.8978   -0.8841 C.ar      1 <0>         0.1270
     13 C10        -0.9001   -4.4060   -2.1829 C.ar      1 <0>        -0.0550
     14 C11        -1.4948   -5.1208   -3.2038 C.ar      1 <0>        -0.1162
     15 C12        -2.1189   -6.3253   -2.9343 C.ar      1 <0>        -0.0224
     16 C13        -2.1497   -6.8176   -1.6427 C.ar      1 <0>        -0.6374
     17 C14        -1.5521   -6.1101   -0.6178 C.ar      1 <0>        -0.0381
     18 S1         -2.9466   -8.3523   -1.3046 S.o2      1 <0>         2.4771
     19 O2         -3.3391   -8.2646    0.0583 O.2       1 <0>        -0.8865
     20 O3         -3.9195   -8.4895   -2.3312 O.2       1 <0>        -0.8848
     21 C15        -1.6493   -9.6047   -1.5018 C.3       1 <0>        -0.2096
     22 F1         -1.1502   -9.5574   -2.8079 F         1 <0>        -0.1630
     23 F2         -0.6131   -9.3493   -0.5972 F         1 <0>        -0.1634
     24 N3          2.7052   -2.7390    4.0509 N.pl3     1 <0>         0.0448
     25 O4          3.3006   -2.1152    4.8983 O.2       1 <0>        -0.1639
     26 O5          2.7885   -3.9446    4.0173 O.3       1 <0>        -0.1702
     27 H1          0.3088    1.9597    0.3490 H         1 <0>         0.0665
     28 H2         -1.2878    1.8072   -0.4230 H         1 <0>         0.0868
     29 H3         -1.1376    1.6708    1.3453 H         1 <0>         0.0666
     30 H4         -0.8654   -0.4745   -0.4713 H         1 <0>         0.4260
     31 H5          0.9431    1.1097    2.2133 H         1 <0>         0.1547
     32 H6          2.3160   -0.0932    3.8559 H         1 <0>         0.1595
     33 H7          1.2744   -3.8176    2.0619 H         1 <0>         0.1537
     34 H8          0.0872   -4.6461    0.8926 H         1 <0>         0.4175
     35 H9         -0.4132   -3.4654   -2.3940 H         1 <0>         0.1465
     36 H10        -1.4728   -4.7388   -4.2137 H         1 <0>         0.1439
     37 H11        -2.5836   -6.8822   -3.7344 H         1 <0>         0.1496
     38 H12        -1.5730   -6.4972    0.3902 H         1 <0>         0.1505
     39 H13        -2.0658  -10.5931   -1.3076 H         1 <0>         0.1583
@<TRIPOS>BOND
     1    1    2 1
     2    1   27 1
     3    1   28 1
     4    1   29 1
     5    2    3 1
     6    2   30 1
     7    3    8 ar
     8    3    4 ar
     9    4    5 ar
    10    4   31 1
    11    5    6 ar
    12    5   32 1
    13    6    7 ar
    14    6   24 1
    15    7    8 ar
    16    7   33 1
    17    8    9 1
    18    9   10 2
    19    9   11 am
    20   11   12 1
    21   11   34 1
    22   12   17 ar
    23   12   13 ar
    24   13   14 ar
    25   13   35 1
    26   14   15 ar
    27   14   36 1
    28   15   16 ar
    29   15   37 1
    30   16   17 ar
    31   16   18 1
    32   17   38 1
    33   18   19 2
    34   18   20 2
    35   18   21 1
    36   21   22 1
    37   21   23 1
    38   21   39 1
    39   24   25 2
    40   24   26 1
@<TRIPOS>MOLECULE
ZINC07383818
   54    56     0     0     0
SMALL
USER_CHARGES
1-[2-[[5-(4-tert-butylphenyl)-1,3,4-oxadiazol-2-yl]sulfanyl]acetyl]piperidine-3-carboxamide
@<TRIPOS>ATOM
      1 C1          0.6261    6.2752   -1.2209 C.3       1 <0>        -0.1407
      2 C2         -0.0760    5.7492    0.0326 C.3       1 <0>        -0.0346
      3 C3         -1.5252    6.2395    0.0492 C.3       1 <0>        -0.1478
      4 C4          0.6504    6.2626    1.2775 C.3       1 <0>        -0.1408
      5 C5         -0.0555    4.2423    0.0249 C.ar      1 <0>        -0.0402
      6 C6          1.1537    3.5700    0.0097 C.ar      1 <0>        -0.1170
      7 C7          1.1796    2.1908    0.0026 C.ar      1 <0>        -0.0607
      8 C8         -0.0180    1.4733    0.0101 C.ar      1 <0>        -0.0364
      9 C9         -1.2346    2.1580    0.0196 C.ar      1 <0>        -0.0776
     10 C10        -1.2461    3.5374    0.0325 C.ar      1 <0>        -0.1224
     11 C11         0.0021   -0.0041    0.0020 C.2       1 <0>         0.2200
     12 N1          1.0687   -0.7655   -0.0180 N.2       1 <0>        -0.2662
     13 N2          0.7120   -2.0016   -0.0163 N.2       1 <0>        -0.2863
     14 C12        -0.5988   -2.0780   -0.0039 C.2       1 <0>         0.1165
     15 O1         -1.0762   -0.8189    0.0079 O.3       1 <0>        -0.1988
     16 S1         -1.5572   -3.5566   -0.0020 S.3       1 <0>         0.1535
     17 C13        -0.2325   -4.7898   -0.0225 C.3       1 <0>        -0.1645
     18 C14        -0.8329   -6.1720   -0.0238 C.2       1 <0>         0.5412
     19 O2         -2.0378   -6.3098   -0.0121 O.2       1 <0>        -0.5221
     20 N3         -0.0309   -7.2551   -0.0380 N.am      1 <0>        -0.6017
     21 C15         1.4305   -7.1042   -0.0585 C.3       1 <0>         0.0976
     22 C16         1.9967   -7.9031   -1.2310 C.3       1 <0>        -0.1368
     23 C17         1.5154   -9.3528   -1.1375 C.3       1 <0>        -0.1029
     24 C18        -0.0124   -9.3910   -1.2178 C.3       1 <0>        -0.1250
     25 H1         -0.3394   -8.9390   -2.1542 H         1 <0>         0.1050
     26 C19        -0.6014   -8.6091   -0.0395 C.3       1 <0>         0.1225
     27 C20        -0.4836  -10.8212   -1.1582 C.2       1 <0>         0.5247
     28 O3          0.3230  -11.7220   -1.0640 O.2       1 <0>        -0.5355
     29 N4         -1.8014  -11.0992   -1.2096 N.am      1 <0>        -0.8542
     30 H2          0.1086    5.9094   -2.1077 H         1 <0>         0.0581
     31 H3          0.6113    7.3651   -1.2153 H         1 <0>         0.0623
     32 H4          1.6586    5.9259   -1.2327 H         1 <0>         0.0592
     33 H5         -2.0254    5.8647    0.9422 H         1 <0>         0.0606
     34 H6         -1.5400    7.3293    0.0548 H         1 <0>         0.0620
     35 H7         -2.0427    5.8736   -0.8377 H         1 <0>         0.0605
     36 H8          1.6829    5.9133    1.2657 H         1 <0>         0.0592
     37 H9          0.6356    7.3525    1.2831 H         1 <0>         0.0623
     38 H10         0.1502    5.8879    2.1705 H         1 <0>         0.0581
     39 H11         2.0794    4.1263    0.0039 H         1 <0>         0.1347
     40 H12         2.1242    1.6673   -0.0093 H         1 <0>         0.1400
     41 H13        -2.1647    1.6089    0.0210 H         1 <0>         0.1323
     42 H14        -2.1865    4.0683    0.0439 H         1 <0>         0.1384
     43 H15         0.3743   -4.6564   -0.9181 H         1 <0>         0.1335
     44 H16         0.3928   -4.6661    0.8618 H         1 <0>         0.1336
     45 H17         1.6875   -6.0517   -0.1772 H         1 <0>         0.0925
     46 H18         1.8499   -7.4821    0.8739 H         1 <0>         0.0808
     47 H19         3.0859   -7.8785   -1.1973 H         1 <0>         0.0879
     48 H20         1.6513   -7.4647   -2.1673 H         1 <0>         0.0712
     49 H21         1.8401   -9.7829   -0.1901 H         1 <0>         0.0760
     50 H22         1.9368   -9.9290   -1.9613 H         1 <0>         0.0789
     51 H23        -0.3510   -9.1121    0.8945 H         1 <0>         0.0800
     52 H24        -1.6848   -8.5490   -0.1431 H         1 <0>         0.1013
     53 H25        -2.4465  -10.3788   -1.2849 H         1 <0>         0.4034
     54 H26        -2.1047  -12.0198   -1.1712 H         1 <0>         0.4044
@<TRIPOS>BOND
     1    1    2 1
     2    1   30 1
     3    1   31 1
     4    1   32 1
     5    2    3 1
     6    2    4 1
     7    2    5 1
     8    3   33 1
     9    3   34 1
    10    3   35 1
    11    4   36 1
    12    4   37 1
    13    4   38 1
    14    5   10 ar
    15    5    6 ar
    16    6    7 ar
    17    6   39 1
    18    7    8 ar
    19    7   40 1
    20    8    9 ar
    21    8   11 1
    22    9   10 ar
    23    9   41 1
    24   10   42 1
    25   11   15 1
    26   11   12 2
    27   12   13 1
    28   13   14 2
    29   14   15 1
    30   14   16 1
    31   16   17 1
    32   17   18 1
    33   17   43 1
    34   17   44 1
    35   18   19 2
    36   18   20 am
    37   20   26 1
    38   20   21 1
    39   21   22 1
    40   21   45 1
    41   21   46 1
    42   22   23 1
    43   22   47 1
    44   22   48 1
    45   23   24 1
    46   23   49 1
    47   23   50 1
    48   24   25 1
    49   24   26 1
    50   24   27 1
    51   26   51 1
    52   26   52 1
    53   27   28 2
    54   27   29 am
    55   29   53 1
    56   29   54 1
@<TRIPOS>MOLECULE
ZINC22305064
   52    55     0     0     0
SMALL
USER_CHARGES

@<TRIPOS>ATOM
      1 C1         -0.0187    1.5258    0.0104 C.3       1 <0>        -0.1447
      2 C2          0.0021   -0.0041    0.0020 C.3       1 <0>         0.0909
      3 H1          0.5122   -0.3562   -0.8946 H         1 <0>         0.0665
      4 C3         -1.4339   -0.5349    0.0151 C.3       1 <0>         0.0256
      5 N1         -1.4075   -2.0031    0.0848 N.3       1 <0>        -0.5306
      6 C4         -0.6922   -2.4548    1.2872 C.3       1 <0>         0.0212
      7 C5          0.7363   -1.9047    1.2614 C.3       1 <0>         0.0912
      8 H2          1.2680   -2.3127    0.4018 H         1 <0>         0.0647
      9 O1          0.6919   -0.4787    1.1614 O.3       1 <0>        -0.3797
     10 C6          1.4614   -2.3052    2.5478 C.3       1 <0>        -0.1448
     11 C7         -2.7675   -2.5567    0.0422 C.3       1 <0>         0.1297
     12 C8         -2.6960   -4.0520   -0.1318 C.2       1 <0>         0.1002
     13 C9         -2.7502   -4.8917    0.9309 C.2       1 <0>        -0.2833
     14 S1         -2.6236   -6.4733    0.1122 S.3       1 <0>         0.2236
     15 C10        -2.5169   -5.9087   -1.4697 C.2       1 <0>         0.2523
     16 N2         -2.5833   -4.6024   -1.3266 N.2       1 <0>        -0.5378
     17 N3         -2.3939   -6.6433   -2.6417 N.am      1 <0>        -0.6120
     18 C11        -2.3472   -7.9893   -2.5916 C.2       1 <0>         0.6172
     19 O2         -2.4129   -8.5613   -1.5186 O.2       1 <0>        -0.4977
     20 C12        -2.2216   -8.7396   -3.7886 C.2       1 <0>        -0.3381
     21 C13        -2.1620  -10.1171   -3.9531 C.2       1 <0>        -0.0082
     22 C14        -2.0386  -10.5620   -5.2436 C.2       1 <0>        -0.2426
     23 C15        -1.9841   -9.6349   -6.2584 C.2       1 <0>         0.0411
     24 S2         -2.1075   -8.1570   -5.4692 S.3       1 <0>         0.3274
     25 N4         -1.8609   -9.8675   -7.6226 N.am      1 <0>        -0.6156
     26 C16        -1.8232   -8.8303   -8.4824 C.2       1 <0>         0.5376
     27 O3         -1.8968   -7.6939   -8.0652 O.2       1 <0>        -0.4968
     28 C17        -1.6896   -9.0826   -9.9621 C.3       1 <0>        -0.1984
     29 C18        -0.3777   -8.6710  -10.6333 C.3       1 <0>        -0.1471
     30 C19        -1.6525   -7.8637  -10.8861 C.3       1 <0>        -0.1402
     31 H3          1.0039    1.9031    0.0027 H         1 <0>         0.0668
     32 H4         -0.5459    1.8868   -0.8726 H         1 <0>         0.0730
     33 H5         -0.5289    1.8773    0.9072 H         1 <0>         0.0628
     34 H6         -1.9605   -0.1387    0.8833 H         1 <0>         0.0446
     35 H7         -1.9455   -0.2229   -0.8954 H         1 <0>         0.0876
     36 H8         -1.2069   -2.0892    2.1757 H         1 <0>         0.0442
     37 H9         -0.6624   -3.5442    1.3053 H         1 <0>         0.0871
     38 H10         1.4922   -3.3921    2.6241 H         1 <0>         0.0724
     39 H11         2.4783   -1.9133    2.5288 H         1 <0>         0.0668
     40 H12         0.9301   -1.8956    3.4069 H         1 <0>         0.0631
     41 H13        -3.2839   -2.3236    0.9734 H         1 <0>         0.0553
     42 H14        -3.3119   -2.1192   -0.7946 H         1 <0>         0.0924
     43 H15        -2.8437   -4.6662    1.9829 H         1 <0>         0.1922
     44 H16        -2.3416   -6.1877   -3.4965 H         1 <0>         0.4217
     45 H17        -2.2095  -10.7966   -3.1150 H         1 <0>         0.1555
     46 H18        -1.9850  -11.6189   -5.4593 H         1 <0>         0.1451
     47 H19        -1.8020  -10.7764   -7.9563 H         1 <0>         0.4259
     48 H20        -2.1849   -9.9801  -10.3326 H         1 <0>         0.1336
     49 H21         0.3887   -8.2177  -10.0046 H         1 <0>         0.1033
     50 H22        -0.0096   -9.2979  -11.4455 H         1 <0>         0.1118
     51 H23        -2.1232   -7.9594  -11.8646 H         1 <0>         0.1105
     52 H24        -1.7248   -6.8793  -10.4237 H         1 <0>         0.1123
@<TRIPOS>BOND
     1    1    2 1
     2    1   31 1
     3    1   32 1
     4    1   33 1
     5    2    3 1
     6    2    9 1
     7    2    4 1
     8    4    5 1
     9    4   34 1
    10    4   35 1
    11    5    6 1
    12    5   11 1
    13    6    7 1
    14    6   36 1
    15    6   37 1
    16    7    8 1
    17    7    9 1
    18    7   10 1
    19   10   38 1
    20   10   39 1
    21   10   40 1
    22   11   12 1
    23   11   41 1
    24   11   42 1
    25   12   16 1
    26   12   13 2
    27   13   14 1
    28   13   43 1
    29   14   15 1
    30   15   16 2
    31   15   17 1
    32   17   18 am
    33   17   44 1
    34   18   19 2
    35   18   20 1
    36   20   24 1
    37   20   21 2
    38   21   22 1
    39   21   45 1
    40   22   23 2
    41   22   46 1
    42   23   24 1
    43   23   25 1
    44   25   26 am
    45   25   47 1
    46   26   27 2
    47   26   28 1
    48   28   30 1
    49   28   29 1
    50   28   48 1
    51   29   30 1
    52   29   49 1
    53   29   50 1
    54   30   51 1
    55   30   52 1
@<TRIPOS>MOLECULE
ZINC38989933
   50    53     0     0     0
SMALL
USER_CHARGES

@<TRIPOS>ATOM
      1 C1         -0.0173    1.4248    0.0099 C.3       1 <0>         0.0284
      2 O1          0.0021   -0.0041    0.0020 O.3       1 <0>        -0.3175
      3 C2          0.6062   -0.6075   -1.0564 C.ar      1 <0>         0.1002
      4 C3          1.1691    0.1668   -2.0673 C.ar      1 <0>        -0.1772
      5 C4          1.7851   -0.4281   -3.1460 C.ar      1 <0>        -0.0928
      6 C5          1.8490   -1.8145   -3.2326 C.ar      1 <0>         0.0646
      7 N1          2.3830   -2.6815   -4.1625 N.pl3     1 <0>        -0.5958
      8 C6          2.1729   -3.9741   -3.7670 C.2       1 <0>         0.0669
      9 C7          1.5131   -3.9938   -2.5981 C.2       1 <0>        -0.1736
     10 C8          1.2813   -2.5995   -2.2129 C.ar      1 <0>        -0.0608
     11 C9          0.6639   -1.9856   -1.1213 C.ar      1 <0>        -0.1073
     12 C10         1.0907   -5.2183   -1.8279 C.3       1 <0>        -0.0600
     13 C11        -0.3540   -5.5727   -2.1856 C.3       1 <0>         0.1215
     14 N2         -0.7646   -6.7631   -1.4369 N.am      1 <0>        -0.5953
     15 C12        -0.5438   -8.0882   -2.0165 C.3       1 <0>         0.4449
     16 H1         -0.5375   -8.0100   -3.1037 H         1 <0>         0.1299
     17 N3         -1.6082   -9.0090   -1.6019 N.pl3     1 <0>        -0.7452
     18 C13        -2.0243   -8.9984   -0.2744 C.ar      1 <0>         0.2211
     19 C14        -2.5354  -10.1310    0.3348 C.ar      1 <0>        -0.1116
     20 C15        -2.9500  -10.0691    1.6647 C.ar      1 <0>        -0.0617
     21 C16        -2.8508   -8.8705    2.3773 C.ar      1 <0>        -0.1062
     22 C17        -2.3388   -7.7424    1.7747 C.ar      1 <0>        -0.0320
     23 C18        -1.9168   -7.7978    0.4479 C.ar      1 <0>        -0.1534
     24 C19        -1.3341   -6.6185   -0.2238 C.2       1 <0>         0.5736
     25 O2         -1.3716   -5.5268    0.3099 O.2       1 <0>        -0.5019
     26 C20        -3.4971  -11.2756    2.3235 C.2       1 <0>         0.5067
     27 O3         -3.5846  -12.3177    1.7061 O.2       1 <0>        -0.4982
     28 O4         -3.8982  -11.2182    3.6080 O.3       1 <0>        -0.3452
     29 C21        -4.4162  -12.4208    4.1803 C.3       1 <0>         0.0337
     30 S1          1.0553   -8.7319   -1.4514 S.3       1 <0>        -0.2703
     31 H2          1.0053    1.8021    0.0021 H         1 <0>         0.0533
     32 H3         -0.5445    1.7859   -0.8732 H         1 <0>         0.0532
     33 H4         -0.5275    1.7763    0.9067 H         1 <0>         0.0988
     34 H5          1.1219    1.2439   -2.0053 H         1 <0>         0.1308
     35 H6          2.2181    0.1822   -3.9248 H         1 <0>         0.1226
     36 H7          2.4909   -4.8493   -4.3141 H         1 <0>         0.1709
     37 H8          2.8393   -2.4147   -4.9759 H         1 <0>         0.4160
     38 H9          0.2304   -2.5850   -0.3344 H         1 <0>         0.1339
     39 H10         1.7437   -6.0524   -2.0850 H         1 <0>         0.0833
     40 H11         1.1616   -5.0175   -0.7589 H         1 <0>         0.0788
     41 H12        -1.0070   -4.7386   -1.9285 H         1 <0>         0.0953
     42 H13        -0.4249   -5.7734   -3.2546 H         1 <0>         0.0831
     43 H14        -2.0143   -9.6144   -2.2417 H         1 <0>         0.4169
     44 H15        -2.6130  -11.0566   -0.2162 H         1 <0>         0.1448
     45 H16        -3.1777   -8.8285    3.4058 H         1 <0>         0.1476
     46 H17        -2.2646   -6.8183    2.3287 H         1 <0>         0.1497
     47 H18        -5.2898  -12.7453    3.6149 H         1 <0>         0.0629
     48 H19        -3.6523  -13.1976    4.1465 H         1 <0>         0.0631
     49 H20        -4.7016  -12.2367    5.2160 H         1 <0>         0.1065
     50 H21         1.1472   -9.9375   -2.0406 H         1 <0>         0.1031
@<TRIPOS>BOND
     1    1    2 1
     2    1   31 1
     3    1   32 1
     4    1   33 1
     5    2    3 1
     6    3    4 ar
     7    3   11 ar
     8    4    5 ar
     9    4   34 1
    10    5    6 ar
    11    5   35 1
    12    6    7 1
    13    6   10 ar
    14    7   37 1
    15    7    8 1
    16    8    9 2
    17    8   36 1
    18    9   10 1
    19    9   12 1
    20   10   11 ar
    21   11   38 1
    22   12   13 1
    23   12   39 1
    24   12   40 1
    25   13   14 1
    26   13   41 1
    27   13   42 1
    28   14   24 am
    29   14   15 1
    30   15   16 1
    31   15   17 1
    32   15   30 1
    33   17   18 1
    34   17   43 1
    35   18   23 ar
    36   18   19 ar
    37   19   20 ar
    38   19   44 1
    39   20   21 ar
    40   20   26 1
    41   21   22 ar
    42   21   45 1
    43   22   23 ar
    44   22   46 1
    45   23   24 1
    46   24   25 2
    47   26   27 2
    48   26   28 1
    49   28   29 1
    50   29   47 1
    51   29   48 1
    52   29   49 1
    53   30   50 1
@<TRIPOS>MOLECULE
ZINC15054729
   50    52     0     0     0
SMALL
USER_CHARGES

@<TRIPOS>ATOM
      1 C1          0.0569    1.4971   -0.2003 C.3       1 <0>        -0.1163
      2 C2          0.0393   -0.0064   -0.0989 C.ar      1 <0>        -0.1046
      3 C3         -0.2217   -0.7711   -1.2229 C.ar      1 <0>        -0.0799
      4 C4         -0.2401   -2.1523   -1.1400 C.ar      1 <0>        -0.1312
      5 C5          0.0014   -2.7777    0.0651 C.ar      1 <0>        -0.0237
      6 C6          0.2658   -2.0122    1.2051 C.ar      1 <0>        -0.1704
      7 C7          0.2887   -0.6168    1.1119 C.ar      1 <0>        -0.0705
      8 C8          0.5241   -2.6716    2.4952 C.2       1 <0>         0.4007
      9 O1          0.6120   -3.8797    2.5518 O.2       1 <0>        -0.4328
     10 C9          0.6794   -1.8455    3.7459 C.3       1 <0>        -0.1450
     11 C10         0.9385   -2.7687    4.9381 C.3       1 <0>        -0.0839
     12 H1          0.1627   -3.5299    5.0207 H         1 <0>         0.1633
     13 C11         1.0733   -1.9771    6.2291 C.2       1 <0>         0.5348
     14 O2          0.1643   -1.3081    6.6726 O.2       1 <0>        -0.4700
     15 N1          2.2435   -2.0642    6.8381 N.am      1 <0>        -0.6483
     16 C12         3.2819   -2.8232    6.3412 C.2       1 <0>         0.4079
     17 N2          4.4841   -2.9891    6.8512 N.2       1 <0>        -0.3577
     18 N3          5.3416   -3.7420    6.2497 N.2       1 <0>        -0.3413
     19 C13         6.5338   -3.9066    6.7555 C.2       1 <0>         0.1997
     20 C14         7.5119   -4.7653    6.0695 C.ar      1 <0>        -0.0412
     21 C15         7.1684   -5.4018    4.8723 C.ar      1 <0>        -0.0885
     22 C16         8.0870   -6.2056    4.2314 C.ar      1 <0>        -0.1148
     23 C17         9.3527   -6.3854    4.7707 C.ar      1 <0>         0.0983
     24 C18         9.7025   -5.7548    5.9629 C.ar      1 <0>         0.0972
     25 C19         8.7898   -4.9430    6.6095 C.ar      1 <0>        -0.1616
     26 O3         10.9442   -5.9340    6.4878 O.3       1 <0>        -0.3061
     27 C20        11.2347   -5.2573    7.7124 C.3       1 <0>         0.0227
     28 O4         10.2540   -7.1795    4.1343 O.3       1 <0>        -0.4857
     29 S1          2.6118   -3.5295    4.8415 S.3       1 <0>        -0.0749
     30 C21        -0.0201   -4.2819    0.1534 C.3       1 <0>        -0.1251
     31 H2          1.0646    1.8330   -0.4448 H         1 <0>         0.0726
     32 H3         -0.6323    1.8166   -0.9819 H         1 <0>         0.0691
     33 H4         -0.2489    1.9291    0.7526 H         1 <0>         0.0686
     34 H5         -0.4123   -0.2871   -2.1694 H         1 <0>         0.1285
     35 H6         -0.4445   -2.7420   -2.0214 H         1 <0>         0.1306
     36 H7          0.4965   -0.0190    1.9870 H         1 <0>         0.1308
     37 H8          1.5194   -1.1609    3.6273 H         1 <0>         0.1158
     38 H9         -0.2327   -1.2746    3.9199 H         1 <0>         0.1297
     39 H10         2.3764   -1.5760    7.6657 H         1 <0>         0.4206
     40 H11         6.8022   -3.4123    7.6775 H         1 <0>         0.1189
     41 H12         6.1839   -5.2640    4.4503 H         1 <0>         0.1418
     42 H13         7.8206   -6.6968    3.3072 H         1 <0>         0.1422
     43 H14         9.0612   -4.4505    7.5315 H         1 <0>         0.1398
     44 H15        12.2552   -5.4852    8.0202 H         1 <0>         0.1032
     45 H16        11.1306   -4.1821    7.5670 H         1 <0>         0.0571
     46 H17        10.5399   -5.5886    8.4842 H         1 <0>         0.0576
     47 H18        10.8080   -6.7115    3.4947 H         1 <0>         0.3909
     48 H19         0.9975   -4.6649    0.0768 H         1 <0>         0.0784
     49 H20        -0.4510   -4.5837    1.1080 H         1 <0>         0.0912
     50 H21        -0.6223   -4.6851   -0.6608 H         1 <0>         0.0617
@<TRIPOS>BOND
     1    1    2 1
     2    1   31 1
     3    1   32 1
     4    1   33 1
     5    2    7 ar
     6    2    3 ar
     7    3    4 ar
     8    3   34 1
     9    4    5 ar
    10    4   35 1
    11    5    6 ar
    12    5   30 1
    13    6    7 ar
    14    6    8 1
    15    7   36 1
    16    8    9 2
    17    8   10 1
    18   10   11 1
    19   10   37 1
    20   10   38 1
    21   11   12 1
    22   11   29 1
    23   11   13 1
    24   13   14 2
    25   13   15 am
    26   15   16 1
    27   15   39 1
    28   16   17 2
    29   16   29 1
    30   17   18 1
    31   18   19 2
    32   19   20 1
    33   19   40 1
    34   20   25 ar
    35   20   21 ar
    36   21   22 ar
    37   21   41 1
    38   22   23 ar
    39   22   42 1
    40   23   24 ar
    41   23   28 1
    42   24   25 ar
    43   24   26 1
    44   25   43 1
    45   26   27 1
    46   27   44 1
    47   27   45 1
    48   27   46 1
    49   28   47 1
    50   30   48 1
    51   30   49 1
    52   30   50 1
@<TRIPOS>MOLECULE
ZINC05343943
   55    58     0     0     0
SMALL
USER_CHARGES

@<TRIPOS>ATOM
      1 C1         -0.3058    1.6722   -1.4472 C.3       1 <0>        -0.1532
      2 C2         -0.2176    0.1925   -1.0681 C.3       1 <0>         0.0549
      3 O1         -1.5337   -0.3589   -0.9917 O.3       1 <0>        -0.3131
      4 C3         -1.6336   -1.6739   -0.6634 C.ar      1 <0>         0.1362
      5 C4         -0.4886   -2.4168   -0.4141 C.ar      1 <0>        -0.2002
      6 C5         -0.5929   -3.7530   -0.0802 C.ar      1 <0>        -0.0792
      7 C6         -1.8371   -4.3504    0.0058 C.ar      1 <0>        -0.1271
      8 C7         -2.9794   -3.6124   -0.2425 C.ar      1 <0>        -0.0564
      9 C8         -2.8808   -2.2741   -0.5713 C.ar      1 <0>        -0.1380
     10 C9         -4.3337   -4.2667   -0.1483 C.3       1 <0>         0.2483
     11 H1         -5.1026   -3.5928   -0.5262 H         1 <0>         0.1102
     12 C10        -4.6294   -4.6418    1.2780 C.2       1 <0>        -0.1747
     13 C11        -4.8141   -4.2121    2.5965 C.2       1 <0>         0.1165
     14 N1         -5.0657   -5.2800    3.3278 N.2       1 <0>        -0.2256
     15 N2         -5.0581   -6.3409    2.6021 N.pl3     1 <0>        -0.3354
     16 H2         -5.2192   -7.2401    2.9282 H         1 <0>         0.4528
     17 C12        -4.7905   -6.0138    1.3031 C.2       1 <0>        -0.0591
     18 C13        -4.6081   -6.5300   -0.0581 C.2       1 <0>         0.6017
     19 O2         -4.6862   -7.7023   -0.3724 O.2       1 <0>        -0.4982
     20 N3         -4.3427   -5.5220   -0.9107 N.am      1 <0>        -0.5944
     21 C14        -4.1036   -5.6537   -2.3500 C.3       1 <0>         0.1425
     22 C15        -2.6328   -5.9978   -2.5933 C.3       1 <0>         0.0477
     23 O3         -2.3497   -7.2893   -2.0511 O.3       1 <0>        -0.5568
     24 C16        -4.7399   -2.8118    3.0827 C.ar      1 <0>        -0.0323
     25 C17        -4.5935   -1.7640    2.1772 C.ar      1 <0>        -0.0894
     26 C18        -4.5249   -0.4633    2.6342 C.ar      1 <0>        -0.0862
     27 C19        -4.6013   -0.1962    3.9897 C.ar      1 <0>        -0.0995
     28 C20        -4.7462   -1.2287    4.8966 C.ar      1 <0>        -0.1078
     29 C21        -4.8226   -2.5386    4.4508 C.ar      1 <0>         0.1235
     30 O4         -4.9716   -3.5541    5.3410 O.3       1 <0>        -0.4769
     31 C22        -4.8281   -0.9295    6.3714 C.3       1 <0>        -0.1081
     32 C23        -4.3659    0.6697    1.6533 C.3       1 <0>        -0.1153
     33 H3          0.6981    2.0928   -1.5054 H         1 <0>         0.0789
     34 H4         -0.7977    1.7707   -2.4149 H         1 <0>         0.0670
     35 H5         -0.8806    2.2073   -0.6913 H         1 <0>         0.0676
     36 H6          0.3572   -0.3426   -1.8240 H         1 <0>         0.0618
     37 H7          0.2743    0.0941   -0.1004 H         1 <0>         0.0623
     38 H8          0.4833   -1.9508   -0.4815 H         1 <0>         0.1284
     39 H9          0.2981   -4.3318    0.1136 H         1 <0>         0.1254
     40 H10        -1.9165   -5.3953    0.2671 H         1 <0>         0.1202
     41 H11        -3.7737   -1.6969   -0.7608 H         1 <0>         0.1340
     42 H12        -4.7336   -6.4472   -2.7519 H         1 <0>         0.0953
     43 H13        -4.3435   -4.7131   -2.8458 H         1 <0>         0.1029
     44 H14        -2.4330   -6.0019   -3.6648 H         1 <0>         0.0570
     45 H15        -2.0006   -5.2538   -2.1087 H         1 <0>         0.0581
     46 H16        -1.4329   -7.5732   -2.1693 H         1 <0>         0.3761
     47 H17        -4.5332   -1.9689    1.1185 H         1 <0>         0.1288
     48 H18        -4.5470    0.8238    4.3405 H         1 <0>         0.1273
     49 H19        -4.1367   -3.9182    5.6657 H         1 <0>         0.3852
     50 H20        -5.8698   -0.7779    6.6540 H         1 <0>         0.0727
     51 H21        -4.4167   -1.7666    6.9354 H         1 <0>         0.0679
     52 H22        -4.2570   -0.0275    6.5913 H         1 <0>         0.0660
     53 H23        -5.3495    1.0226    1.3432 H         1 <0>         0.0715
     54 H24        -3.8196    1.4857    2.1263 H         1 <0>         0.0667
     55 H25        -3.8136    0.3203    0.7810 H         1 <0>         0.0715
@<TRIPOS>BOND
     1    1    2 1
     2    1   33 1
     3    1   34 1
     4    1   35 1
     5    2    3 1
     6    2   36 1
     7    2   37 1
     8    3    4 1
     9    4    9 ar
    10    4    5 ar
    11    5    6 ar
    12    5   38 1
    13    6    7 ar
    14    6   39 1
    15    7    8 ar
    16    7   40 1
    17    8    9 ar
    18    8   10 1
    19    9   41 1
    20   10   11 1
    21   10   20 1
    22   10   12 1
    23   12   17 2
    24   12   13 1
    25   13   14 2
    26   13   24 1
    27   14   15 1
    28   15   16 1
    29   15   17 1
    30   17   18 1
    31   18   19 2
    32   18   20 am
    33   20   21 1
    34   21   22 1
    35   21   42 1
    36   21   43 1
    37   22   23 1
    38   22   44 1
    39   22   45 1
    40   23   46 1
    41   24   29 ar
    42   24   25 ar
    43   25   26 ar
    44   25   47 1
    45   26   27 ar
    46   26   32 1
    47   27   28 ar
    48   27   48 1
    49   28   29 ar
    50   28   31 1
    51   29   30 1
    52   30   49 1
    53   31   50 1
    54   31   51 1
    55   31   52 1
    56   32   53 1
    57   32   54 1
    58   32   55 1
@<TRIPOS>MOLECULE
ZINC06155149
   51    54     0     0     0
SMALL
USER_CHARGES
benzylcarbamoylcarbamoylmethyl 2-BLAHylacetate
@<TRIPOS>ATOM
      1 C1         11.1892    4.3537   -9.8261 C.ar      1 <0>        -0.1088
      2 C2         11.1442    5.6156   -9.2633 C.ar      1 <0>        -0.1218
      3 C3         10.7803    5.7690   -7.9386 C.ar      1 <0>        -0.0987
      4 C4         10.4618    4.6605   -7.1765 C.ar      1 <0>        -0.1143
      5 C5         10.5123    3.3982   -7.7377 C.ar      1 <0>        -0.0986
      6 C6         10.8712    3.2453   -9.0638 C.ar      1 <0>        -0.1218
      7 C7         10.0655    4.8278   -5.7322 C.3       1 <0>         0.1776
      8 N1          8.6138    5.0029   -5.6412 N.am      1 <0>        -0.7318
      9 C8          8.0294    5.1715   -4.4385 C.2       1 <0>         0.6961
     10 O1          8.7067    5.1782   -3.4294 O.2       1 <0>        -0.5249
     11 N2          6.6939    5.3326   -4.3549 N.am      1 <0>        -0.6884
     12 C9          6.1095    5.5012   -3.1522 C.2       1 <0>         0.5187
     13 O2          6.7852    5.5079   -2.1456 O.2       1 <0>        -0.4388
     14 C10         4.6163    5.6813   -3.0586 C.3       1 <0>         0.0518
     15 O3          4.2344    5.8424   -1.6670 O.3       1 <0>        -0.3327
     16 C11         2.9284    6.0147   -1.4095 C.2       1 <0>         0.4624
     17 O4          2.1307    6.0304   -2.3169 O.2       1 <0>        -0.4890
     18 C12         2.4571    6.1886    0.0113 C.3       1 <0>        -0.0404
     19 C13         0.9602    6.3626    0.0262 C.2       1 <0>        -0.1683
     20 C14         0.2823    7.5224    0.0384 C.2       1 <0>         0.0256
     21 O5         -1.0388    7.2796    0.0497 O.3       1 <0>        -0.1744
     22 C15        -1.2846    5.9537    0.0453 C.ar      1 <0>         0.0441
     23 C16        -0.0469    5.3036    0.0304 C.ar      1 <0>        -0.1088
     24 C17        -0.0056    3.8471    0.0227 C.ar      1 <0>        -0.0024
     25 C18         1.2025    3.1420    0.0074 C.ar      1 <0>        -0.1129
     26 C19         1.1891    1.7784    0.0003 C.ar      1 <0>        -0.1060
     27 C20        -0.0126    1.0758    0.0080 C.ar      1 <0>        -0.1207
     28 C21        -1.2068    1.7311    0.0172 C.ar      1 <0>        -0.0953
     29 C22        -1.2302    3.1348    0.0306 C.ar      1 <0>        -0.0633
     30 C23        -2.4453    3.8460    0.0449 C.ar      1 <0>        -0.0814
     31 C24        -2.4648    5.2017    0.0523 C.ar      1 <0>        -0.0890
     32 H1         11.4732    4.2339  -10.8612 H         1 <0>         0.1246
     33 H2         11.3930    6.4816   -9.8588 H         1 <0>         0.1255
     34 H3         10.7451    6.7548   -7.4990 H         1 <0>         0.1250
     35 H4         10.2677    2.5318   -7.1410 H         1 <0>         0.1250
     36 H5         10.9067    2.2594   -9.5034 H         1 <0>         0.1255
     37 H6         10.5638    5.7041   -5.3178 H         1 <0>         0.0805
     38 H7         10.3606    3.9420   -5.1696 H         1 <0>         0.0805
     39 H8          8.0733    4.9975   -6.4466 H         1 <0>         0.4008
     40 H9          6.1534    5.3272   -5.1603 H         1 <0>         0.4122
     41 H10         4.1179    4.8049   -3.4730 H         1 <0>         0.1096
     42 H11         4.3212    6.5670   -3.6213 H         1 <0>         0.1100
     43 H12         2.9296    7.0697    0.4456 H         1 <0>         0.1246
     44 H13         2.7263    5.3076    0.5938 H         1 <0>         0.1210
     45 H14         0.7327    8.5040    0.0397 H         1 <0>         0.2122
     46 H15         2.1417    3.6752    0.0017 H         1 <0>         0.1206
     47 H16         2.1231    1.2363   -0.0119 H         1 <0>         0.1258
     48 H17         0.0021   -0.0041    0.0020 H         1 <0>         0.1262
     49 H18        -2.1316    1.1732    0.0186 H         1 <0>         0.1311
     50 H19        -3.3783    3.3020    0.0506 H         1 <0>         0.1409
     51 H20        -3.4154    5.7143    0.0634 H         1 <0>         0.1342
@<TRIPOS>BOND
     1    1    6 ar
     2    1    2 ar
     3    1   32 1
     4    2    3 ar
     5    2   33 1
     6    3    4 ar
     7    3   34 1
     8    4    5 ar
     9    4    7 1
    10    5    6 ar
    11    5   35 1
    12    6   36 1
    13    7    8 1
    14    7   37 1
    15    7   38 1
    16    8    9 am
    17    8   39 1
    18    9   10 2
    19    9   11 am
    20   11   12 am
    21   11   40 1
    22   12   13 2
    23   12   14 1
    24   14   15 1
    25   14   41 1
    26   14   42 1
    27   15   16 1
    28   16   17 2
    29   16   18 1
    30   18   19 1
    31   18   43 1
    32   18   44 1
    33   19   23 1
    34   19   20 2
    35   20   21 1
    36   20   45 1
    37   21   22 1
    38   22   31 ar
    39   22   23 ar
    40   23   24 ar
    41   24   29 ar
    42   24   25 ar
    43   25   26 ar
    44   25   46 1
    45   26   27 ar
    46   26   47 1
    47   27   28 ar
    48   27   48 1
    49   28   29 ar
    50   28   49 1
    51   29   30 ar
    52   30   31 ar
    53   30   50 1
    54   31   51 1
@<TRIPOS>MOLECULE
ZINC10455205
   56    59     0     0     0
SMALL
USER_CHARGES
[2-(1-adamantyl)-1-methyl-2-oxo-ethyl] 2-methoxy-5-sulfamoyl-benzoate
@<TRIPOS>ATOM
      1 C1         -5.3471    0.2470    1.5260 C.3       1 <0>        -0.1739
      2 C2         -4.8755    0.0439    0.0847 C.3       1 <0>         0.0568
      3 H1         -4.7313    0.9341   -0.3474 H         1 <0>         0.0992
      4 C3         -5.9211   -0.7235   -0.6826 C.2       1 <0>         0.3647
      5 O1         -5.8237   -1.9211   -0.8036 O.2       1 <0>        -0.4147
      6 C4         -7.0884    0.0036   -1.2989 C.3       1 <0>        -0.0903
      7 C5         -6.5836    0.9366   -2.4014 C.3       1 <0>        -0.1024
      8 C6         -7.7688    1.6748   -3.0270 C.3       1 <0>        -0.0827
      9 C7         -8.7439    0.6590   -3.6255 C.3       1 <0>        -0.1110
     10 C8         -9.2487   -0.2740   -2.5230 C.3       1 <0>        -0.0857
     11 C9         -8.0636   -1.0122   -1.8973 C.3       1 <0>        -0.0937
     12 C10        -9.9635    0.5469   -1.4478 C.3       1 <0>        -0.1107
     13 C11        -8.9883    1.5627   -0.8493 C.3       1 <0>        -0.0836
     14 C12        -8.4835    2.4957   -1.9518 C.3       1 <0>        -0.1109
     15 C13        -7.8032    0.8245   -0.2236 C.3       1 <0>        -0.1069
     16 O2         -3.6297   -0.7021    0.0837 O.3       1 <0>        -0.3358
     17 C14        -2.4887    0.0126    0.1399 C.2       1 <0>         0.5105
     18 O3         -2.5335    1.2259    0.1884 O.2       1 <0>        -0.4813
     19 C15        -1.1863   -0.6775    0.1425 C.ar      1 <0>        -0.1827
     20 C16        -1.1298   -2.0728    0.0824 C.ar      1 <0>         0.0801
     21 C17         0.0907   -2.7117    0.0913 C.ar      1 <0>        -0.7298
     22 C18         1.2640   -1.9774    0.1539 C.ar      1 <0>         0.0561
     23 C19         1.2232   -0.5985    0.2085 C.ar      1 <0>        -0.2402
     24 C20         0.0034    0.0619    0.2008 C.ar      1 <0>         0.2466
     25 O4         -0.0383    1.4166    0.2553 O.3       1 <0>        -0.2753
     26 C21         1.2139    2.1021    0.3191 C.3       1 <0>         0.0144
     27 S1          0.1599   -4.4710    0.0222 S.o2      1 <0>         2.7053
     28 O5         -1.0525   -4.9018   -0.5807 O.2       1 <0>        -0.9557
     29 O6          1.4353   -4.8068   -0.5070 O.2       1 <0>        -0.9606
     30 N1          0.1348   -5.0237    1.5831 N.pl3     1 <0>        -1.2495
     31 H2         -4.5528    0.7178    2.1052 H         1 <0>         0.0769
     32 H3         -6.2297    0.8865    1.5327 H         1 <0>         0.0915
     33 H4         -5.5948   -0.7187    1.9667 H         1 <0>         0.0743
     34 H5         -5.8889    1.6603   -1.9750 H         1 <0>         0.0699
     35 H6         -6.0744    0.3518   -3.1674 H         1 <0>         0.0693
     36 H7         -7.4091    2.3395   -3.8125 H         1 <0>         0.0764
     37 H8         -8.2347    0.0742   -4.3915 H         1 <0>         0.0638
     38 H9         -9.5882    1.1849   -4.0712 H         1 <0>         0.0659
     39 H10        -9.9435   -0.9977   -2.9493 H         1 <0>         0.0756
     40 H11        -7.5544   -1.5970   -2.6633 H         1 <0>         0.0712
     41 H12        -8.4233   -1.6769   -1.1119 H         1 <0>         0.0696
     42 H13       -10.8078    1.0728   -1.8935 H         1 <0>         0.0656
     43 H14       -10.3231   -0.1179   -0.6623 H         1 <0>         0.0638
     44 H15        -9.4975    2.1475   -0.0833 H         1 <0>         0.0767
     45 H16        -7.7888    3.2194   -1.5255 H         1 <0>         0.0645
     46 H17        -9.3278    3.0216   -2.3975 H         1 <0>         0.0666
     47 H18        -8.1629    0.1597    0.5618 H         1 <0>         0.0714
     48 H19        -7.1085    1.5481    0.2027 H         1 <0>         0.0745
     49 H20        -2.0417   -2.6493    0.0335 H         1 <0>         0.1666
     50 H21         2.2163   -2.4868    0.1605 H         1 <0>         0.1556
     51 H22         2.1421   -0.0333    0.2575 H         1 <0>         0.1527
     52 H23         1.0380    3.1771    0.3582 H         1 <0>         0.1115
     53 H24         1.7541    1.7896    1.2127 H         1 <0>         0.0651
     54 H25         1.8048    1.8626   -0.5650 H         1 <0>         0.0653
     55 H26         0.0889   -4.3943    2.3198 H         1 <0>         0.4170
     56 H27         0.1659   -5.9768    1.7607 H         1 <0>         0.4226
@<TRIPOS>BOND
     1    1    2 1
     2    1   31 1
     3    1   32 1
     4    1   33 1
     5    2    3 1
     6    2    4 1
     7    2   16 1
     8    4    5 2
     9    4    6 1
    10    6   11 1
    11    6   15 1
    12    6    7 1
    13    7    8 1
    14    7   34 1
    15    7   35 1
    16    8   14 1
    17    8    9 1
    18    8   36 1
    19    9   10 1
    20    9   37 1
    21    9   38 1
    22   10   11 1
    23   10   12 1
    24   10   39 1
    25   11   40 1
    26   11   41 1
    27   12   13 1
    28   12   42 1
    29   12   43 1
    30   13   14 1
    31   13   15 1
    32   13   44 1
    33   14   45 1
    34   14   46 1
    35   15   47 1
    36   15   48 1
    37   16   17 1
    38   17   18 2
    39   17   19 1
    40   19   24 ar
    41   19   20 ar
    42   20   21 ar
    43   20   49 1
    44   21   22 ar
    45   21   27 1
    46   22   23 ar
    47   22   50 1
    48   23   24 ar
    49   23   51 1
    50   24   25 1
    51   25   26 1
    52   26   52 1
    53   26   53 1
    54   26   54 1
    55   27   28 2
    56   27   29 2
    57   27   30 1
    58   30   55 1
    59   30   56 1
@<TRIPOS>MOLECULE
ZINC16839279
   56    59     0     0     0
SMALL
USER_CHARGES
1-benzyl-N'-(2-ethoxynaphthalene-1-carbonyl)-6-oxo-pyridine-3-carbohydrazide
@<TRIPOS>ATOM
      1 C1          2.2473    9.4843    0.0311 C.3       1 <0>        -0.1541
      2 C2          2.4234    7.9645    0.0214 C.3       1 <0>         0.0519
      3 O1          1.1399    7.3362    0.0303 O.3       1 <0>        -0.3074
      4 C3          1.1182    5.9810    0.0233 C.ar      1 <0>         0.1872
      5 C4          2.3184    5.2677    0.0076 C.ar      1 <0>        -0.1991
      6 C5          2.3433    3.9103    0.0002 C.ar      1 <0>        -0.0334
      7 C6          1.1483    3.1675    0.0081 C.ar      1 <0>        -0.0863
      8 C7          1.1636    1.7627    0.0004 C.ar      1 <0>        -0.0852
      9 C8         -0.0126    1.0758    0.0080 C.ar      1 <0>        -0.1277
     10 C9         -1.2335    1.7450    0.0174 C.ar      1 <0>        -0.0884
     11 C10        -1.2846    3.1075    0.0306 C.ar      1 <0>        -0.1218
     12 C11        -0.0947    3.8445    0.0236 C.ar      1 <0>         0.0207
     13 C12        -0.1035    5.3068    0.0314 C.ar      1 <0>        -0.1785
     14 C13        -1.3718    6.0503    0.0480 C.2       1 <0>         0.5885
     15 O2         -1.8861    6.3523    1.1084 O.2       1 <0>        -0.5257
     16 N1         -1.9648    6.3973   -1.1115 N.am      1 <0>        -0.5117
     17 N2         -3.1733    7.1059   -1.0957 N.am      1 <0>        -0.5183
     18 C14        -3.7662    7.4529   -2.2552 C.2       1 <0>         0.5834
     19 O3         -3.2522    7.1510   -3.3151 O.2       1 <0>        -0.5430
     20 C15        -5.0382    8.1986   -2.2385 C.2       1 <0>        -0.2513
     21 C16        -5.6415    8.5529   -1.0075 C.2       1 <0>        -0.0030
     22 C17        -6.8143    9.2409   -1.0217 C.2       1 <0>        -0.2332
     23 C18        -7.4011    9.5849   -2.2541 C.2       1 <0>         0.5176
     24 O4         -8.4529   10.2020   -2.2722 O.2       1 <0>        -0.5286
     25 N3         -6.8108    9.2377   -3.4121 N.am      1 <0>        -0.4824
     26 C19        -5.6470    8.5616   -3.4226 C.2       1 <0>         0.2260
     27 C20        -7.4415    9.6068   -4.6818 C.3       1 <0>         0.1270
     28 C21        -6.9388   10.9589   -5.1181 C.ar      1 <0>        -0.1247
     29 C22        -7.6062   12.1041   -4.7257 C.ar      1 <0>        -0.0883
     30 C23        -7.1423   13.3445   -5.1218 C.ar      1 <0>        -0.1225
     31 C24        -6.0170   13.4392   -5.9191 C.ar      1 <0>        -0.1064
     32 C25        -5.3526   12.2938   -6.3159 C.ar      1 <0>        -0.1227
     33 C26        -5.8135   11.0536   -5.9154 C.ar      1 <0>        -0.1020
     34 H1          1.7036    9.7813    0.9280 H         1 <0>         0.0683
     35 H2          3.2262    9.9636    0.0243 H         1 <0>         0.0824
     36 H3          1.6865    9.7908   -0.8519 H         1 <0>         0.0673
     37 H4          2.9841    7.6580    0.9044 H         1 <0>         0.0680
     38 H5          2.9671    7.6675   -0.8754 H         1 <0>         0.0679
     39 H6          3.2521    5.8104    0.0008 H         1 <0>         0.1389
     40 H7          3.2920    3.3943   -0.0116 H         1 <0>         0.1385
     41 H8          2.1031    1.2301   -0.0110 H         1 <0>         0.1324
     42 H9          0.0021   -0.0041    0.0020 H         1 <0>         0.1279
     43 H10        -2.1523    1.1773    0.0184 H         1 <0>         0.1283
     44 H11        -2.2378    3.6151    0.0424 H         1 <0>         0.1247
     45 H12        -1.5548    6.1566   -1.9569 H         1 <0>         0.4340
     46 H13        -3.5833    7.3467   -0.2502 H         1 <0>         0.4314
     47 H14        -5.1773    8.2804   -0.0712 H         1 <0>         0.1389
     48 H15        -7.2916    9.5217   -0.0946 H         1 <0>         0.1584
     49 H16        -5.1886    8.2976   -4.3642 H         1 <0>         0.1799
     50 H17        -7.1928    8.8646   -5.4404 H         1 <0>         0.1073
     51 H18        -8.5231    9.6458   -4.5525 H         1 <0>         0.1166
     52 H19        -8.4879   12.0298   -4.1064 H         1 <0>         0.1317
     53 H20        -7.6615   14.2394   -4.8122 H         1 <0>         0.1259
     54 H21        -5.6571   14.4081   -6.2323 H         1 <0>         0.1249
     55 H22        -4.4736   12.3677   -6.9391 H         1 <0>         0.1261
     56 H23        -5.2946   10.1587   -6.2256 H         1 <0>         0.1241
@<TRIPOS>BOND
     1    1    2 1
     2    1   34 1
     3    1   35 1
     4    1   36 1
     5    2    3 1
     6    2   37 1
     7    2   38 1
     8    3    4 1
     9    4   13 ar
    10    4    5 ar
    11    5    6 ar
    12    5   39 1
    13    6    7 ar
    14    6   40 1
    15    7   12 ar
    16    7    8 ar
    17    8    9 ar
    18    8   41 1
    19    9   10 ar
    20    9   42 1
    21   10   11 ar
    22   10   43 1
    23   11   12 ar
    24   11   44 1
    25   12   13 ar
    26   13   14 1
    27   14   15 2
    28   14   16 am
    29   16   17 1
    30   16   45 1
    31   17   18 am
    32   17   46 1
    33   18   19 2
    34   18   20 1
    35   20   26 2
    36   20   21 1
    37   21   22 2
    38   21   47 1
    39   22   23 1
    40   22   48 1
    41   23   24 2
    42   23   25 am
    43   25   26 1
    44   25   27 1
    45   26   49 1
    46   27   28 1
    47   27   50 1
    48   27   51 1
    49   28   33 ar
    50   28   29 ar
    51   29   30 ar
    52   29   52 1
    53   30   31 ar
    54   30   53 1
    55   31   32 ar
    56   31   54 1
    57   32   33 ar
    58   32   55 1
    59   33   56 1
@<TRIPOS>MOLECULE
ZINC32000119
   54    58     0     0     0
SMALL
USER_CHARGES
5-cyclopropyl-N-[[3-(furan-2-carbonylamino)phenyl]methyl]-2-phenyl-pyrazole-3-carboxamide
@<TRIPOS>ATOM
      1 C1         -3.5466    3.6642    0.0460 C.ar      1 <0>        -0.1088
      2 C2         -2.3931    4.1381    0.6436 C.ar      1 <0>        -0.1135
      3 C3         -1.2418    3.3754    0.6275 C.ar      1 <0>        -0.1009
      4 C4         -1.2435    2.1313    0.0103 C.ar      1 <0>         0.1337
      5 C5         -2.4022    1.6605   -0.5935 C.ar      1 <0>        -0.0715
      6 C6         -3.5517    2.4256   -0.5690 C.ar      1 <0>        -0.1084
      7 N1         -0.0778    1.3557   -0.0082 N.pl3     1 <0>        -0.2889
      8 C7          0.0030    0.0121    0.2442 C.2       1 <0>         0.0381
      9 C8          1.3313   -0.3432    0.1186 C.2       1 <0>        -0.2178
     10 C9          2.0471    0.8046   -0.2124 C.2       1 <0>         0.0829
     11 N2          1.2155    1.8141   -0.2887 N.2       1 <0>        -0.2648
     12 C10         3.5345    0.8741   -0.4445 C.3       1 <0>        -0.1742
     13 C11         4.3826   -0.2981    0.0529 C.3       1 <0>        -0.1120
     14 C12         4.4334    1.0473    0.7814 C.3       1 <0>        -0.1127
     15 C13        -1.1134   -0.8827    0.5845 C.2       1 <0>         0.5808
     16 O1         -2.2260   -0.4255    0.7653 O.2       1 <0>        -0.5227
     17 N3         -0.9038   -2.2094    0.6960 N.am      1 <0>        -0.7188
     18 C14        -2.0339   -3.1128    0.9260 C.3       1 <0>         0.1672
     19 C15        -1.5335   -4.5317    1.0118 C.ar      1 <0>        -0.0928
     20 C16        -1.1608   -5.0600    2.2345 C.ar      1 <0>        -0.1106
     21 C17        -0.7011   -6.3613    2.3176 C.ar      1 <0>        -0.1002
     22 C18        -0.6130   -7.1383    1.1789 C.ar      1 <0>        -0.1108
     23 C19        -0.9864   -6.6109   -0.0503 C.ar      1 <0>         0.1465
     24 C20        -1.4528   -5.3047   -0.1295 C.ar      1 <0>        -0.1216
     25 N4         -0.8985   -7.3947   -1.2049 N.am      1 <0>        -0.6780
     26 C21        -1.1606   -8.7154   -1.1444 C.2       1 <0>         0.6089
     27 O2         -1.3894   -9.2419   -0.0712 O.2       1 <0>        -0.5029
     28 C22        -1.1702   -9.5178   -2.3715 C.2       1 <0>        -0.0883
     29 C23        -1.4194  -10.8582   -2.4519 C.2       1 <0>        -0.1092
     30 C24        -1.3266  -11.2051   -3.8088 C.2       1 <0>        -0.2249
     31 C25        -1.0285  -10.0759   -4.4886 C.2       1 <0>         0.0026
     32 O3         -0.9401   -9.0604   -3.6197 O.3       1 <0>        -0.1664
     33 H1         -4.4456    4.2626    0.0600 H         1 <0>         0.1294
     34 H2         -2.3923    5.1058    1.1231 H         1 <0>         0.1321
     35 H3         -0.3413    3.7459    1.0947 H         1 <0>         0.1290
     36 H4         -2.4055    0.6952   -1.0779 H         1 <0>         0.1262
     37 H5         -4.4543    2.0582   -1.0344 H         1 <0>         0.1313
     38 H6          1.7421   -1.3324    0.2569 H         1 <0>         0.1578
     39 H7          3.4072    1.3980   -1.4033 H         1 <0>         0.1357
     40 H8          3.7253   -1.1383    0.3214 H         1 <0>         0.1045
     41 H9          5.0745   -0.6134   -0.7420 H         1 <0>         0.1101
     42 H10         5.1672    1.8437    0.5884 H         1 <0>         0.1094
     43 H11         3.8181    1.3188    1.6519 H         1 <0>         0.1017
     44 H12         0.1159   -2.6139    0.6143 H         1 <0>         0.4267
     45 H13        -2.5335   -2.8426    1.8680 H         1 <0>         0.0828
     46 H14        -2.7482   -3.0256    0.0941 H         1 <0>         0.0792
     47 H15        -1.2294   -4.4548    3.1263 H         1 <0>         0.1270
     48 H16        -0.4109   -6.7708    3.2738 H         1 <0>         0.1305
     49 H17        -0.2546   -8.1549    1.2446 H         1 <0>         0.1405
     50 H18        -1.7485   -4.8932   -1.0832 H         1 <0>         0.1284
     51 H19        -0.6154   -6.9334   -2.1626 H         1 <0>         0.4419
     52 H20        -1.6444  -11.5224   -1.6306 H         1 <0>         0.1624
     53 H21        -1.4666  -12.1896   -4.2302 H         1 <0>         0.1602
     54 H22        -0.8887  -10.0034   -5.5570 H         1 <0>         0.2138
@<TRIPOS>BOND
     1    1    6 ar
     2    1    2 ar
     3    1   33 1
     4    2    3 ar
     5    2   34 1
     6    3    4 ar
     7    3   35 1
     8    4    5 ar
     9    4    7 1
    10    5    6 ar
    11    5   36 1
    12    6   37 1
    13    7   11 1
    14    7    8 1
    15    8    9 2
    16    8   15 1
    17    9   10 1
    18    9   38 1
    19   10   11 2
    20   10   12 1
    21   12   14 1
    22   12   13 1
    23   12   39 1
    24   13   14 1
    25   13   40 1
    26   13   41 1
    27   14   42 1
    28   14   43 1
    29   15   16 2
    30   15   17 am
    31   17   18 1
    32   17   44 1
    33   18   19 1
    34   18   45 1
    35   18   46 1
    36   19   24 ar
    37   19   20 ar
    38   20   21 ar
    39   20   47 1
    40   21   22 ar
    41   21   48 1
    42   22   23 ar
    43   22   49 1
    44   23   24 ar
    45   23   25 1
    46   24   50 1
    47   25   26 am
    48   25   51 1
    49   26   27 2
    50   26   28 1
    51   28   32 1
    52   28   29 2
    53   29   30 1
    54   29   52 1
    55   30   31 2
    56   30   53 1
    57   31   32 1
    58   31   54 1
@<TRIPOS>MOLECULE
ZINC45557440
   47    49     0     0     0
SMALL
USER_CHARGES

@<TRIPOS>ATOM
      1 C1         -0.0182    1.5421   -0.0093 C.3       1 <0>        -0.1697
      2 C2         -0.0030    0.0122   -0.0080 C.3       1 <0>         0.0744
      3 H1          0.5191   -0.3452    0.8795 H         1 <0>         0.1155
      4 C3          0.7058   -0.4842   -1.2418 C.2       1 <0>         0.5199
      5 O1          0.0949   -1.1116   -2.0810 O.2       1 <0>        -0.4956
      6 N1          2.0184   -0.2309   -1.4127 N.am      1 <0>        -0.6605
      7 C4          2.6988   -0.7708   -2.5122 C.ar      1 <0>         0.1317
      8 C5          2.0481   -0.9193   -3.7283 C.ar      1 <0>        -0.0891
      9 C6          2.7214   -1.4516   -4.8114 C.ar      1 <0>        -0.1222
     10 C7          4.0433   -1.8378   -4.6865 C.ar      1 <0>        -0.0927
     11 C8          4.6983   -1.6929   -3.4778 C.ar      1 <0>        -0.1725
     12 C9          4.0321   -1.1547   -2.3886 C.ar      1 <0>         0.0815
     13 O2          4.6768   -1.0064   -1.2006 O.3       1 <0>        -0.3241
     14 C10         6.0431   -1.4215   -1.1476 C.3       1 <0>         0.4141
     15 F1          6.1288   -2.7838   -1.4542 F         1 <0>        -0.1961
     16 F2          6.7900   -0.6870   -2.0749 F         1 <0>        -0.1966
     17 O3         -1.3455   -0.4774   -0.0004 O.3       1 <0>        -0.3199
     18 C11        -1.9138   -0.6860    1.2034 C.2       1 <0>         0.5160
     19 O4         -1.2867   -0.4583    2.2189 O.2       1 <0>        -0.5024
     20 C12        -3.2968   -1.1905    1.2884 C.ar      1 <0>        -0.1522
     21 C13        -4.0182   -1.4586    0.1209 C.ar      1 <0>        -0.0231
     22 C14        -5.3086   -1.9296    0.2038 C.ar      1 <0>        -0.1662
     23 C15        -5.8965   -2.1397    1.4478 C.ar      1 <0>         0.2031
     24 C16        -5.1813   -1.8732    2.6116 C.ar      1 <0>        -0.1397
     25 C17        -3.8883   -1.4075    2.5363 C.ar      1 <0>        -0.0123
     26 C18        -5.8239   -2.1025    3.9552 C.3       1 <0>        -0.0769
     27 C19        -7.3186   -1.7926    3.8653 C.3       1 <0>        -0.1399
     28 C20        -7.9120   -2.4788    2.6645 C.2       1 <0>         0.5213
     29 O5         -9.0431   -2.9127    2.7208 O.2       1 <0>        -0.5166
     30 N2         -7.2032   -2.6169    1.5296 N.am      1 <0>        -0.6630
     31 H2          1.0058    1.9156   -0.0151 H         1 <0>         0.0824
     32 H3         -0.5403    1.8996   -0.8968 H         1 <0>         0.0772
     33 H4         -0.5308    1.9012    0.8831 H         1 <0>         0.0807
     34 H5          2.4922    0.3252   -0.7746 H         1 <0>         0.4158
     35 H6          1.0155   -0.6192   -3.8286 H         1 <0>         0.1508
     36 H7          2.2137   -1.5667   -5.7577 H         1 <0>         0.1338
     37 H8          4.5652   -2.2540   -5.5354 H         1 <0>         0.1326
     38 H9          5.7307   -1.9958   -3.3835 H         1 <0>         0.1383
     39 H10         6.4366   -1.2491   -0.1459 H         1 <0>         0.1840
     40 H11        -3.5632   -1.2958   -0.8449 H         1 <0>         0.1485
     41 H12        -5.8661   -2.1362   -0.6978 H         1 <0>         0.1407
     42 H13        -3.3329   -1.2054    3.4403 H         1 <0>         0.1467
     43 H14        -5.6857   -3.1424    4.2513 H         1 <0>         0.0878
     44 H15        -5.3614   -1.4496    4.6953 H         1 <0>         0.0976
     45 H16        -7.8168   -2.1468    4.7678 H         1 <0>         0.1142
     46 H17        -7.4603   -0.7157    3.7737 H         1 <0>         0.1076
     47 H18        -7.6051   -3.0521    0.7615 H         1 <0>         0.4151
@<TRIPOS>BOND
     1    1    2 1
     2    1   31 1
     3    1   32 1
     4    1   33 1
     5    2    3 1
     6    2    4 1
     7    2   17 1
     8    4    5 2
     9    4    6 am
    10    6    7 1
    11    6   34 1
    12    7   12 ar
    13    7    8 ar
    14    8    9 ar
    15    8   35 1
    16    9   10 ar
    17    9   36 1
    18   10   11 ar
    19   10   37 1
    20   11   12 ar
    21   11   38 1
    22   12   13 1
    23   13   14 1
    24   14   15 1
    25   14   16 1
    26   14   39 1
    27   17   18 1
    28   18   19 2
    29   18   20 1
    30   20   25 ar
    31   20   21 ar
    32   21   22 ar
    33   21   40 1
    34   22   23 ar
    35   22   41 1
    36   23   30 1
    37   23   24 ar
    38   24   25 ar
    39   24   26 1
    40   25   42 1
    41   26   27 1
    42   26   43 1
    43   26   44 1
    44   27   28 1
    45   27   45 1
    46   27   46 1
    47   28   29 2
    48   28   30 am
    49   30   47 1
@<TRIPOS>MOLECULE
ZINC05860248
   61    63     0     0     0
SMALL
USER_CHARGES
N'-[2-(2-isopropyl-5-methyl-phenoxy)acetyl]-4-(tetrahydrofuran-2-ylmethoxy)benzohydrazide
@<TRIPOS>ATOM
      1 C1         16.1175    6.3242    1.1399 C.3       1 <0>        -0.1175
      2 C2         15.1286    6.7678    0.0928 C.ar      1 <0>        -0.0504
      3 C3         15.5117    7.6733   -0.8796 C.ar      1 <0>        -0.1516
      4 C4         14.6068    8.0826   -1.8413 C.ar      1 <0>        -0.0735
      5 C5         13.3170    7.5871   -1.8333 C.ar      1 <0>        -0.1036
      6 C6         12.9305    6.6784   -0.8592 C.ar      1 <0>         0.1302
      7 C7         13.8390    6.2736    0.1083 C.ar      1 <0>        -0.2083
      8 O1         11.6625    6.1896   -0.8492 O.3       1 <0>        -0.2856
      9 C8         11.3346    5.2574    0.1831 C.3       1 <0>         0.0531
     10 C9          9.8976    4.8284    0.0348 C.2       1 <0>         0.5180
     11 O2          9.2209    5.2768   -0.8663 O.2       1 <0>        -0.5119
     12 N1          9.3645    3.9465    0.9034 N.am      1 <0>        -0.5184
     13 N2          8.0286    3.5477    0.7655 N.am      1 <0>        -0.5190
     14 C10         7.4955    2.6658    1.6341 C.2       1 <0>         0.5697
     15 O3          8.1739    2.2164    2.5375 O.2       1 <0>        -0.5355
     16 C11         6.0880    2.2456    1.4888 C.ar      1 <0>        -0.1750
     17 C12         5.5334    1.3314    2.3884 C.ar      1 <0>        -0.0098
     18 C13         4.2201    0.9416    2.2492 C.ar      1 <0>        -0.1584
     19 C14         3.4463    1.4562    1.2155 C.ar      1 <0>         0.1678
     20 C15         3.9958    2.3617    0.3155 C.ar      1 <0>        -0.2178
     21 C16         5.3068    2.7606    0.4511 C.ar      1 <0>        -0.0397
     22 O4          2.1525    1.0692    1.0814 O.3       1 <0>        -0.3000
     23 C17         1.4146    1.6369   -0.0027 C.3       1 <0>         0.0623
     24 C18        -0.0127    1.0858    0.0080 C.3       1 <0>         0.0753
     25 H1          0.0021   -0.0041    0.0020 H         1 <0>         0.0825
     26 C19        -0.8044    1.6196   -1.2064 C.3       1 <0>        -0.1481
     27 C20        -2.2297    1.8468   -0.6549 C.3       1 <0>        -0.1551
     28 C21        -2.1306    1.4234    0.8274 C.3       1 <0>         0.0415
     29 O5         -0.7310    1.5725    1.1626 O.3       1 <0>        -0.3637
     30 C22        12.3312    8.0333   -2.8822 C.3       1 <0>        -0.0546
     31 C23        12.1445    9.5493   -2.7945 C.3       1 <0>        -0.1422
     32 C24        12.8604    7.6640   -4.2694 C.3       1 <0>        -0.1423
     33 H2         16.0617    6.9930    1.9988 H         1 <0>         0.0733
     34 H3         15.8817    5.3077    1.4549 H         1 <0>         0.0667
     35 H4         17.1244    6.3511    0.7233 H         1 <0>         0.0695
     36 H5         16.5194    8.0618   -0.8876 H         1 <0>         0.1244
     37 H6         14.9081    8.7905   -2.5993 H         1 <0>         0.1299
     38 H7         13.5390    5.5698    0.8706 H         1 <0>         0.1276
     39 H8         11.4745    5.7287    1.1560 H         1 <0>         0.1010
     40 H9         11.9840    4.3855    0.1050 H         1 <0>         0.1010
     41 H10         9.9058    3.5880    1.6241 H         1 <0>         0.4349
     42 H11         7.4873    3.9063    0.0448 H         1 <0>         0.4322
     43 H12         6.1340    0.9314    3.1920 H         1 <0>         0.1472
     44 H13         3.7909    0.2347    2.9438 H         1 <0>         0.1431
     45 H14         3.3925    2.7559   -0.4890 H         1 <0>         0.1371
     46 H15         5.7318    3.4675   -0.2462 H         1 <0>         0.1300
     47 H16         1.8968    1.3783   -0.9453 H         1 <0>         0.0817
     48 H17         1.3862    2.7211    0.1055 H         1 <0>         0.0764
     49 H18        -0.3768    2.5585   -1.5583 H         1 <0>         0.0799
     50 H19        -0.8161    0.8819   -2.0088 H         1 <0>         0.0848
     51 H20        -2.5068    2.8980   -0.7342 H         1 <0>         0.0788
     52 H21        -2.9482    1.2205   -1.1838 H         1 <0>         0.0810
     53 H22        -2.7413    2.0769    1.4503 H         1 <0>         0.0951
     54 H23        -2.4406    0.3853    0.9471 H         1 <0>         0.0633
     55 H24        11.3742    7.5391   -2.7150 H         1 <0>         0.0882
     56 H25        13.1015   10.0436   -2.9617 H         1 <0>         0.0548
     57 H26        11.4315    9.8721   -3.5532 H         1 <0>         0.0582
     58 H27        11.7675    9.8124   -1.8062 H         1 <0>         0.0544
     59 H28        13.8175    8.1582   -4.4366 H         1 <0>         0.0548
     60 H29        12.9935    6.5839   -4.3318 H         1 <0>         0.0543
     61 H30        12.1474    7.9867   -5.0280 H         1 <0>         0.0582
@<TRIPOS>BOND
     1    1    2 1
     2    1   33 1
     3    1   34 1
     4    1   35 1
     5    2    7 ar
     6    2    3 ar
     7    3    4 ar
     8    3   36 1
     9    4    5 ar
    10    4   37 1
    11    5    6 ar
    12    5   30 1
    13    6    7 ar
    14    6    8 1
    15    7   38 1
    16    8    9 1
    17    9   10 1
    18    9   39 1
    19    9   40 1
    20   10   11 2
    21   10   12 am
    22   12   13 1
    23   12   41 1
    24   13   14 am
    25   13   42 1
    26   14   15 2
    27   14   16 1
    28   16   21 ar
    29   16   17 ar
    30   17   18 ar
    31   17   43 1
    32   18   19 ar
    33   18   44 1
    34   19   20 ar
    35   19   22 1
    36   20   21 ar
    37   20   45 1
    38   21   46 1
    39   22   23 1
    40   23   24 1
    41   23   47 1
    42   23   48 1
    43   24   25 1
    44   24   29 1
    45   24   26 1
    46   26   27 1
    47   26   49 1
    48   26   50 1
    49   27   28 1
    50   27   51 1
    51   27   52 1
    52   28   29 1
    53   28   53 1
    54   28   54 1
    55   30   31 1
    56   30   32 1
    57   30   55 1
    58   31   56 1
    59   31   57 1
    60   31   58 1
    61   32   59 1
    62   32   60 1
    63   32   61 1
@<TRIPOS>MOLECULE
ZINC12896338
   58    61     0     0     0
SMALL
USER_CHARGES
N-[2-(6-methoxy-1H-indol-3-yl)ethyl]-3-(7-methoxy-4-methyl-2-oxo-chromen-3-yl)propanamide
@<TRIPOS>ATOM
      1 C1          4.9984    0.0868   -0.0450 C.3       1 <0>        -0.1332
      2 C2          3.6889   -0.6590   -0.0370 C.2       1 <0>         0.0397
      3 C3          2.4136    0.0606   -0.0208 C.ar      1 <0>        -0.1880
      4 C4          2.3758    1.4597   -0.0133 C.ar      1 <0>        -0.0144
      5 C5          1.1738    2.1055    0.0022 C.ar      1 <0>        -0.2259
      6 C6         -0.0167    1.3809    0.0096 C.ar      1 <0>         0.1860
      7 C7          0.0021   -0.0041    0.0020 C.ar      1 <0>        -0.1756
      8 C8          1.2148   -0.6765   -0.0132 C.ar      1 <0>         0.1884
      9 O1          1.2557   -2.0261   -0.0213 O.3       1 <0>        -0.2690
     10 C9          2.4212   -2.6917   -0.0357 C.2       1 <0>         0.5166
     11 O2          2.4090   -3.9096   -0.0421 O.2       1 <0>        -0.4559
     12 C10         3.6594   -2.0171   -0.0440 C.2       1 <0>        -0.2314
     13 C11         4.9466   -2.8006   -0.0601 C.3       1 <0>        -0.0459
     14 C12         5.3956   -3.0736    1.3768 C.3       1 <0>        -0.1357
     15 C13         6.6827   -3.8571    1.3607 C.2       1 <0>         0.5142
     16 O3          7.1910   -4.1668    0.3039 O.2       1 <0>        -0.5360
     17 N1          7.2691   -4.2138    2.5206 N.am      1 <0>        -0.7341
     18 C14         8.5204   -4.9755    2.5049 C.3       1 <0>         0.1235
     19 C15         8.9694   -5.2484    3.9419 C.3       1 <0>        -0.0531
     20 C16        10.2566   -6.0320    3.9258 C.2       1 <0>        -0.1630
     21 C17        10.3803   -7.3654    4.0110 C.2       1 <0>         0.0550
     22 N2         11.7036   -7.7154    3.9630 N.pl3     1 <0>        -0.5932
     23 H1         12.0419   -8.6235    4.0067 H         1 <0>         0.4183
     24 C18        12.4822   -6.5860    3.8427 C.ar      1 <0>         0.1359
     25 C19        11.6102   -5.4825    3.8076 C.ar      1 <0>        -0.1327
     26 C20        12.1245   -4.1893    3.6964 C.ar      1 <0>        -0.0301
     27 C21        13.4745   -4.0000    3.6094 C.ar      1 <0>        -0.2225
     28 C22        14.3434   -5.0876    3.6371 C.ar      1 <0>         0.1482
     29 C23        13.8537   -6.3752    3.7530 C.ar      1 <0>        -0.1733
     30 O4         15.6843   -4.8816    3.5499 O.3       1 <0>        -0.3182
     31 C24        16.1264   -3.5278    3.4320 C.3       1 <0>         0.0282
     32 O5         -1.2045    2.0380    0.0188 O.3       1 <0>        -0.3063
     33 C25        -1.1559    3.4661    0.0264 C.3       1 <0>         0.0232
     34 H2          5.3238    0.2608    0.9806 H         1 <0>         0.0914
     35 H3          5.7496   -0.5037   -0.5694 H         1 <0>         0.0897
     36 H4          4.8688    1.0429   -0.5522 H         1 <0>         0.0805
     37 H5          3.2952    2.0265   -0.0194 H         1 <0>         0.1441
     38 H6          1.1448    3.1851    0.0083 H         1 <0>         0.1419
     39 H7         -0.9247   -0.5585    0.0083 H         1 <0>         0.1529
     40 H8          4.7894   -3.7470   -0.5776 H         1 <0>         0.0915
     41 H9          5.7149   -2.2266   -0.5780 H         1 <0>         0.0898
     42 H10         5.5527   -2.1272    1.8943 H         1 <0>         0.0935
     43 H11         4.6272   -3.6477    1.8947 H         1 <0>         0.0969
     44 H12         6.8626   -3.9662    3.3658 H         1 <0>         0.4006
     45 H13         8.3633   -5.9219    1.9874 H         1 <0>         0.0680
     46 H14         9.2888   -4.4014    1.9871 H         1 <0>         0.0689
     47 H15         9.1266   -4.3021    4.4594 H         1 <0>         0.0766
     48 H16         8.2010   -5.8225    4.4598 H         1 <0>         0.0769
     49 H17         9.5583   -8.0597    4.1034 H         1 <0>         0.1712
     50 H18        11.4564   -3.3411    3.6739 H         1 <0>         0.1248
     51 H19        13.8708   -2.9994    3.5188 H         1 <0>         0.1294
     52 H20        14.5337   -7.2140    3.7742 H         1 <0>         0.1283
     53 H21        17.2145   -3.5049    3.3712 H         1 <0>         0.1003
     54 H22        15.7028   -3.0845    2.5308 H         1 <0>         0.0564
     55 H23        15.7992   -2.9615    4.3039 H         1 <0>         0.0562
     56 H24        -2.1706    3.8642    0.0333 H         1 <0>         0.1072
     57 H25        -0.6258    3.8069    0.9157 H         1 <0>         0.0617
     58 H26        -0.6342    3.8166   -0.8642 H         1 <0>         0.0617
@<TRIPOS>BOND
     1    1    2 1
     2    1   34 1
     3    1   35 1
     4    1   36 1
     5    2   12 2
     6    2    3 1
     7    3    8 ar
     8    3    4 ar
     9    4    5 ar
    10    4   37 1
    11    5    6 ar
    12    5   38 1
    13    6    7 ar
    14    6   32 1
    15    7    8 ar
    16    7   39 1
    17    8    9 1
    18    9   10 1
    19   10   11 2
    20   10   12 1
    21   12   13 1
    22   13   14 1
    23   13   40 1
    24   13   41 1
    25   14   15 1
    26   14   42 1
    27   14   43 1
    28   15   16 2
    29   15   17 am
    30   17   18 1
    31   17   44 1
    32   18   19 1
    33   18   45 1
    34   18   46 1
    35   19   20 1
    36   19   47 1
    37   19   48 1
    38   20   25 1
    39   20   21 2
    40   21   22 1
    41   21   49 1
    42   22   23 1
    43   22   24 1
    44   24   29 ar
    45   24   25 ar
    46   25   26 ar
    47   26   27 ar
    48   26   50 1
    49   27   28 ar
    50   27   51 1
    51   28   29 ar
    52   28   30 1
    53   29   52 1
    54   30   31 1
    55   31   53 1
    56   31   54 1
    57   31   55 1
    58   32   33 1
    59   33   56 1
    60   33   57 1
    61   33   58 1
@<TRIPOS>MOLECULE
ZINC21451134
   57    59     0     0     0
SMALL
USER_CHARGES
(3R)-1-butyl-5-oxo-N-[4-(p-tolylsulfamoyl)phenyl]pyrrolidine-3-carboxamide
@<TRIPOS>ATOM
      1 C1        -10.7807    1.8973    0.1800 C.3       1 <0>        -0.1542
      2 C2         -9.8334    2.0081   -1.0164 C.3       1 <0>        -0.1234
      3 C3         -8.4550    1.4705   -0.6270 C.3       1 <0>        -0.1370
      4 C4         -7.5077    1.5814   -1.8234 C.3       1 <0>         0.1227
      5 N1         -6.1878    1.0666   -1.4505 N.am      1 <0>        -0.6184
      6 C5         -5.1126    1.8834   -0.8753 C.3       1 <0>         0.1188
      7 C6         -4.1176    0.8774   -0.2553 C.3       1 <0>        -0.1197
      8 H1         -4.2215    0.7398    0.8311 H         1 <0>         0.1268
      9 C7         -4.3874   -0.3919   -1.0961 C.3       1 <0>        -0.1466
     10 C8         -5.8060   -0.2146   -1.5908 C.2       1 <0>         0.5224
     11 O1         -6.4979   -1.0995   -2.0481 O.2       1 <0>        -0.5221
     12 C9         -2.6964    1.3477   -0.4294 C.2       1 <0>         0.5214
     13 O2         -2.4735    2.4448   -0.8961 O.2       1 <0>        -0.5078
     14 N2         -1.6731    0.5491   -0.0666 N.am      1 <0>        -0.6875
     15 C10        -0.3584    1.0238   -0.1310 C.ar      1 <0>         0.2103
     16 C11        -0.0893    2.3633    0.1176 C.ar      1 <0>        -0.1456
     17 C12         1.2095    2.8286    0.0537 C.ar      1 <0>         0.0079
     18 C13         2.2413    1.9622   -0.2578 C.ar      1 <0>        -0.6934
     19 C14         1.9767    0.6278   -0.5054 C.ar      1 <0>         0.0027
     20 C15         0.6801    0.1562   -0.4431 C.ar      1 <0>        -0.1684
     21 S1          3.8968    2.5601   -0.3394 S.o2      1 <0>         2.6932
     22 O3          3.9731    3.6670    0.5483 O.2       1 <0>        -0.9499
     23 O4          4.7445    1.4261   -0.2178 O.2       1 <0>        -0.9563
     24 N3          4.1258    3.1607   -1.8656 N.pl3     1 <0>        -1.0758
     25 C16         3.4101    4.2829   -2.2892 C.ar      1 <0>         0.1179
     26 C17         2.3505    4.1389   -3.1758 C.ar      1 <0>        -0.1064
     27 C18         1.6420    5.2501   -3.5888 C.ar      1 <0>        -0.1148
     28 C19         1.9930    6.5061   -3.1290 C.ar      1 <0>        -0.0752
     29 C20         3.0506    6.6536   -2.2503 C.ar      1 <0>        -0.1135
     30 C21         3.7600    5.5460   -1.8292 C.ar      1 <0>        -0.1004
     31 C22         1.2209    7.7169   -3.5859 C.3       1 <0>        -0.1213
     32 H2        -11.7717    2.2838   -0.1000 H         1 <0>         0.0567
     33 H3        -10.3815    2.4855    1.0195 H         1 <0>         0.0541
     34 H4        -10.8699    0.8429    0.4806 H         1 <0>         0.0547
     35 H5        -10.2326    1.4199   -1.8559 H         1 <0>         0.0652
     36 H6         -9.7442    3.0624   -1.3171 H         1 <0>         0.0643
     37 H7         -8.0558    2.0586    0.2125 H         1 <0>         0.0651
     38 H8         -8.5442    0.4161   -0.3264 H         1 <0>         0.0675
     39 H9         -7.9069    0.9933   -2.6629 H         1 <0>         0.0863
     40 H10        -7.4185    2.6358   -2.1240 H         1 <0>         0.0826
     41 H11        -4.6394    2.4789   -1.6699 H         1 <0>         0.0933
     42 H12        -5.5314    2.5565   -0.1127 H         1 <0>         0.0885
     43 H13        -3.6650   -0.4437   -1.9240 H         1 <0>         0.1117
     44 H14        -4.2804   -1.2828   -0.4598 H         1 <0>         0.1150
     45 H15        -1.8715   -0.4758    0.2801 H         1 <0>         0.4424
     46 H16        -0.8953    3.0414    0.3562 H         1 <0>         0.1434
     47 H17         1.4194    3.8703    0.2465 H         1 <0>         0.1401
     48 H18         2.7848   -0.0464   -0.7481 H         1 <0>         0.1457
     49 H19         0.4739   -0.8860   -0.6372 H         1 <0>         0.1377
     50 H20         4.8416    2.6759   -2.5458 H         1 <0>         0.4508
     51 H21         2.0787    3.1587   -3.5388 H         1 <0>         0.1262
     52 H22         0.8155    5.1384   -4.2750 H         1 <0>         0.1263
     53 H23         3.3219    7.6359   -1.8928 H         1 <0>         0.1292
     54 H24         4.5857    5.6618   -1.1427 H         1 <0>         0.1339
     55 H25         1.6427    8.6187   -3.1181 H         1 <0>         0.0680
     56 H26         0.1659    7.6111   -3.2929 H         1 <0>         0.0726
     57 H27         1.2905    7.8047   -4.6802 H         1 <0>         0.0723
@<TRIPOS>BOND
     1    1    2 1
     2    1   32 1
     3    1   33 1
     4    1   34 1
     5    2    3 1
     6    2   35 1
     7    2   36 1
     8    3    4 1
     9    3   37 1
    10    3   38 1
    11    4    5 1
    12    4   39 1
    13    4   40 1
    14    5   10 am
    15    5    6 1
    16    6    7 1
    17    6   41 1
    18    6   42 1
    19    7    8 1
    20    7    9 1
    21    7   12 1
    22    9   10 1
    23    9   43 1
    24    9   44 1
    25   10   11 2
    26   12   13 2
    27   12   14 am
    28   14   15 1
    29   14   45 1
    30   15   20 ar
    31   15   16 ar
    32   16   17 ar
    33   16   46 1
    34   17   18 ar
    35   17   47 1
    36   18   19 ar
    37   18   21 1
    38   19   20 ar
    39   19   48 1
    40   20   49 1
    41   21   22 2
    42   21   23 2
    43   21   24 1
    44   24   25 1
    45   24   50 1
    46   25   30 ar
    47   25   26 ar
    48   26   27 ar
    49   26   51 1
    50   27   28 ar
    51   27   52 1
    52   28   29 ar
    53   28   31 1
    54   29   30 ar
    55   29   53 1
    56   30   54 1
    57   31   55 1
    58   31   56 1
    59   31   57 1
@<TRIPOS>MOLECULE
ZINC35754541
   63    65     0     0     0
SMALL
USER_CHARGES

@<TRIPOS>ATOM
      1 C1          1.7604    2.2989    0.7341 C.3       1 <0>        -0.1560
      2 C2          1.1397    0.9769    0.2779 C.3       1 <0>        -0.0813
      3 C3          1.8225    0.5102   -1.0092 C.3       1 <0>        -0.1497
      4 C4          1.3305   -0.0792    1.3684 C.3       1 <0>        -0.1365
      5 C5          0.5559    0.3219    2.5973 C.2       1 <0>         0.5137
      6 O1         -0.0856    1.3512    2.6006 O.2       1 <0>        -0.5103
      7 N1          0.5760   -0.4631    3.6926 N.am      1 <0>        -0.6776
      8 C6         -0.0737   -0.0505    4.8612 C.ar      1 <0>         0.1491
      9 C7         -1.2606    0.6665    4.7814 C.ar      1 <0>        -0.1047
     10 C8         -1.8993    1.0723    5.9365 C.ar      1 <0>        -0.0956
     11 C9         -1.3581    0.7660    7.1719 C.ar      1 <0>        -0.1001
     12 C10        -0.1765    0.0529    7.2546 C.ar      1 <0>        -0.0875
     13 C11         0.4639   -0.3617    6.1030 C.ar      1 <0>        -0.1298
     14 C12         0.4100   -0.2782    8.6028 C.3       1 <0>         0.1336
     15 H1          1.4890   -0.4155    8.5326 H         1 <0>         0.1149
     16 C13        -0.2681   -1.5304    9.2077 C.3       1 <0>         0.0799
     17 H2         -1.2660   -1.6703    8.7920 H         1 <0>         0.1226
     18 N2         -0.3396   -1.1848   10.6412 N.am      1 <0>        -0.6034
     19 C14        -0.1072    0.1363   10.7568 C.2       1 <0>         0.6467
     20 O2         -0.0713    0.7220   11.8208 O.2       1 <0>        -0.4989
     21 O3          0.0825    0.7383    9.5701 O.3       1 <0>        -0.3111
     22 C15        -0.6143   -2.1130   11.7409 C.3       1 <0>         0.1887
     23 C16        -2.0849   -2.0822   12.0687 C.ar      1 <0>        -0.1194
     24 C17        -2.5814   -1.1206   12.9287 C.ar      1 <0>        -0.0930
     25 C18        -3.9304   -1.0924   13.2294 C.ar      1 <0>        -0.1214
     26 C19        -4.7829   -2.0256   12.6697 C.ar      1 <0>        -0.1115
     27 C20        -4.2866   -2.9867   11.8090 C.ar      1 <0>        -0.1241
     28 C21        -2.9383   -3.0122   11.5050 C.ar      1 <0>        -0.1031
     29 C22         0.5787   -2.7576    8.9888 C.2       1 <0>         0.5147
     30 O4          1.2272   -3.2181    9.9044 O.2       1 <0>        -0.5118
     31 N3          0.6153   -3.3434    7.7756 N.am      1 <0>        -0.7185
     32 C23         1.4385   -4.5365    7.5628 C.3       1 <0>         0.1355
     33 C24         0.6502   -5.7806    7.9774 C.3       1 <0>        -0.1654
     34 C25         1.8135   -4.6400    6.0831 C.3       1 <0>        -0.1627
     35 H3          2.8251    2.1557    0.9189 H         1 <0>         0.0487
     36 H4          1.6245    3.0513   -0.0428 H         1 <0>         0.0551
     37 H5          1.2740    2.6314    1.6511 H         1 <0>         0.0724
     38 H6          0.0751    1.1201    0.0931 H         1 <0>         0.0790
     39 H7          2.8871    0.3670   -0.8244 H         1 <0>         0.0559
     40 H8          1.3803   -0.4316   -1.3342 H         1 <0>         0.0554
     41 H9          1.6866    1.2626   -1.7861 H         1 <0>         0.0603
     42 H10         0.9682   -1.0423    1.0088 H         1 <0>         0.0978
     43 H11         2.3890   -0.1587    1.6160 H         1 <0>         0.0981
     44 H12         1.0409   -1.3142    3.6709 H         1 <0>         0.4114
     45 H13        -1.6834    0.9065    3.8170 H         1 <0>         0.1430
     46 H14        -2.8223    1.6298    5.8752 H         1 <0>         0.1331
     47 H15        -1.8593    1.0849    8.0738 H         1 <0>         0.1301
     48 H16         1.3841   -0.9232    6.1684 H         1 <0>         0.1300
     49 H17        -0.3292   -3.1223   11.4442 H         1 <0>         0.1054
     50 H18        -0.0402   -1.8164   12.6187 H         1 <0>         0.0976
     51 H19        -1.9154   -0.3915   13.3660 H         1 <0>         0.1288
     52 H20        -4.3182   -0.3416   13.9019 H         1 <0>         0.1240
     53 H21        -5.8367   -2.0040   12.9052 H         1 <0>         0.1227
     54 H22        -4.9526   -3.7159   11.3720 H         1 <0>         0.1227
     55 H23        -2.5511   -3.7608   10.8296 H         1 <0>         0.1180
     56 H24         0.0966   -2.9751    7.0433 H         1 <0>         0.4019
     57 H25         2.3453   -4.4641    8.1633 H         1 <0>         0.0921
     58 H26        -0.2566   -5.8530    7.3769 H         1 <0>         0.0584
     59 H27         1.2627   -6.6682    7.8191 H         1 <0>         0.0692
     60 H28         0.3830   -5.7068    9.0316 H         1 <0>         0.0611
     61 H29         2.3751   -3.7537    5.7878 H         1 <0>         0.0622
     62 H30         2.4260   -5.5277    5.9248 H         1 <0>         0.0771
     63 H31         0.9067   -4.7124    5.4827 H         1 <0>         0.0629
@<TRIPOS>BOND
     1    1    2 1
     2    1   35 1
     3    1   36 1
     4    1   37 1
     5    2    3 1
     6    2    4 1
     7    2   38 1
     8    3   39 1
     9    3   40 1
    10    3   41 1
    11    4    5 1
    12    4   42 1
    13    4   43 1
    14    5    6 2
    15    5    7 am
    16    7    8 1
    17    7   44 1
    18    8   13 ar
    19    8    9 ar
    20    9   10 ar
    21    9   45 1
    22   10   11 ar
    23   10   46 1
    24   11   12 ar
    25   11   47 1
    26   12   13 ar
    27   12   14 1
    28   13   48 1
    29   14   15 1
    30   14   21 1
    31   14   16 1
    32   16   17 1
    33   16   18 1
    34   16   29 1
    35   18   19 am
    36   18   22 1
    37   19   20 2
    38   19   21 1
    39   22   23 1
    40   22   49 1
    41   22   50 1
    42   23   28 ar
    43   23   24 ar
    44   24   25 ar
    45   24   51 1
    46   25   26 ar
    47   25   52 1
    48   26   27 ar
    49   26   53 1
    50   27   28 ar
    51   27   54 1
    52   28   55 1
    53   29   30 2
    54   29   31 am
    55   31   32 1
    56   31   56 1
    57   32   33 1
    58   32   34 1
    59   32   57 1
    60   33   58 1
    61   33   59 1
    62   33   60 1
    63   34   61 1
    64   34   62 1
    65   34   63 1
@<TRIPOS>MOLECULE
ZINC20151148
   56    58     0     0     0
SMALL
USER_CHARGES

@<TRIPOS>ATOM
      1 C1         -0.0179    1.5259   -0.0445 C.3       1 <0>        -0.1530
      2 C2          0.0028   -0.0040   -0.0452 C.3       1 <0>         0.0515
      3 O1         -1.3378   -0.4984   -0.0249 O.3       1 <0>        -0.3014
      4 C3         -1.4976   -1.8473   -0.0227 C.ar      1 <0>         0.1216
      5 C4         -0.3837   -2.6763   -0.0340 C.ar      1 <0>        -0.1790
      6 C5         -0.5393   -4.0450   -0.0314 C.ar      1 <0>        -0.0893
      7 C6         -1.8228   -4.6029   -0.0174 C.ar      1 <0>        -0.0833
      8 C7         -2.9449   -3.7664   -0.0060 C.ar      1 <0>        -0.1455
      9 C8         -2.7796   -2.3954   -0.0034 C.ar      1 <0>         0.0965
     10 O2         -3.8675   -1.5795    0.0133 O.3       1 <0>        -0.3047
     11 C9         -5.1502   -2.2090    0.0327 C.3       1 <0>         0.0238
     12 C10        -1.9918   -6.0631   -0.0151 C.2       1 <0>         0.0025
     13 C11        -0.9082   -6.8681   -0.0265 C.2       1 <0>        -0.2247
     14 C12        -1.0763   -8.3206   -0.0243 C.2       1 <0>         0.5511
     15 O3         -2.1936   -8.8040   -0.0120 O.2       1 <0>        -0.5283
     16 N1          0.0055   -9.1242   -0.0357 N.am      1 <0>        -0.6663
     17 C13        -0.1521  -10.5119    0.0641 C.ar      1 <0>         0.1088
     18 C14        -1.2454  -11.1307   -0.5310 C.ar      1 <0>        -0.0642
     19 C15        -1.4075  -12.4996   -0.4373 C.ar      1 <0>        -0.1903
     20 C16        -0.4807  -13.2647    0.2510 C.ar      1 <0>         0.1409
     21 C17         0.6232  -12.6487    0.8531 C.ar      1 <0>        -0.0413
     22 C18         0.7851  -11.2670    0.7511 C.ar      1 <0>        -0.0760
     23 C19         1.6151  -13.4595    1.5892 C.2       1 <0>         0.0530
     24 C20         2.9642  -13.4094    1.4278 C.2       1 <0>        -0.1973
     25 C21         3.5156  -14.3447    2.3268 C.2       1 <0>        -0.1819
     26 C22         2.4869  -14.9131    2.9852 C.2       1 <0>        -0.0196
     27 O4          1.3403  -14.3723    2.5406 O.3       1 <0>        -0.1532
     28 C23         2.6033  -15.9757    4.0474 C.3       1 <0>         0.1581
     29 O5          2.7184  -15.3564    5.3301 O.3       1 <0>        -0.5668
     30 O6         -0.6425  -14.6112    0.3423 O.3       1 <0>        -0.3065
     31 C24        -1.7921  -15.1711   -0.2958 C.3       1 <0>         0.0246
     32 H1          1.0047    1.9030   -0.0600 H         1 <0>         0.0799
     33 H2         -0.5500    1.8824   -0.9265 H         1 <0>         0.0674
     34 H3         -0.5230    1.8821    0.8533 H         1 <0>         0.0675
     35 H4          0.5079   -0.3602   -0.9430 H         1 <0>         0.0636
     36 H5          0.5349   -0.3605    0.8368 H         1 <0>         0.0636
     37 H6          0.6072   -2.2469   -0.0452 H         1 <0>         0.1401
     38 H7          0.3289   -4.6874   -0.0406 H         1 <0>         0.1339
     39 H8         -3.9374   -4.1921    0.0048 H         1 <0>         0.1420
     40 H9         -5.2636   -2.8302   -0.8558 H         1 <0>         0.0566
     41 H10        -5.2365   -2.8305    0.9239 H         1 <0>         0.0567
     42 H11        -5.9290   -1.4465    0.0446 H         1 <0>         0.1031
     43 H12        -2.9830   -6.4919   -0.0043 H         1 <0>         0.1372
     44 H13         0.0830   -6.4393   -0.0374 H         1 <0>         0.1334
     45 H14         0.8934   -8.7413   -0.1130 H         1 <0>         0.4130
     46 H15        -1.9714  -10.5388   -1.0687 H         1 <0>         0.1473
     47 H16        -2.2593  -12.9742   -0.9016 H         1 <0>         0.1385
     48 H17         1.6365  -10.7863    1.2098 H         1 <0>         0.1400
     49 H18         3.5082  -12.7759    0.7430 H         1 <0>         0.1517
     50 H19         4.5644  -14.5643    2.4620 H         1 <0>         0.1514
     51 H20         1.7157  -16.6080    4.0276 H         1 <0>         0.0653
     52 H21         3.4873  -16.5843    3.8572 H         1 <0>         0.0816
     53 H22         2.7973  -15.9820    6.0633 H         1 <0>         0.3878
     54 H23        -2.6943  -14.7377    0.1357 H         1 <0>         0.0584
     55 H24        -1.7581  -14.9518   -1.3630 H         1 <0>         0.0581
     56 H25        -1.8005  -16.2508   -0.1468 H         1 <0>         0.1023
@<TRIPOS>BOND
     1    1    2 1
     2    1   32 1
     3    1   33 1
     4    1   34 1
     5    2    3 1
     6    2   35 1
     7    2   36 1
     8    3    4 1
     9    4    9 ar
    10    4    5 ar
    11    5    6 ar
    12    5   37 1
    13    6    7 ar
    14    6   38 1
    15    7    8 ar
    16    7   12 1
    17    8    9 ar
    18    8   39 1
    19    9   10 1
    20   10   11 1
    21   11   40 1
    22   11   41 1
    23   11   42 1
    24   12   13 2
    25   12   43 1
    26   13   14 1
    27   13   44 1
    28   14   15 2
    29   14   16 am
    30   16   17 1
    31   16   45 1
    32   17   22 ar
    33   17   18 ar
    34   18   19 ar
    35   18   46 1
    36   19   20 ar
    37   19   47 1
    38   20   21 ar
    39   20   30 1
    40   21   22 ar
    41   21   23 1
    42   22   48 1
    43   23   27 1
    44   23   24 2
    45   24   25 1
    46   24   49 1
    47   25   26 2
    48   25   50 1
    49   26   27 1
    50   26   28 1
    51   28   29 1
    52   28   51 1
    53   28   52 1
    54   29   53 1
    55   30   31 1
    56   31   54 1
    57   31   55 1
    58   31   56 1
@<TRIPOS>MOLECULE
ZINC04477159
   50    51     0     0     0
SMALL
USER_CHARGES
2-(4-ethyl-2,5-dioxo-4-phenyl-imidazolidin-1-yl)-N-(tert-butylcarbamoyl)acetamide
@<TRIPOS>ATOM
      1 C1         -2.5780    4.0965    0.8909 C.3       1 <0>        -0.1589
      2 C2         -1.2043    3.4306    0.7884 C.3       1 <0>        -0.1177
      3 C3         -1.3319    2.1138    0.0199 C.3       1 <0>         0.1738
      4 C4         -1.8125    2.3667   -1.3953 C.2       1 <0>         0.5433
      5 O1         -1.2548    3.0176   -2.2528 O.2       1 <0>        -0.4511
      6 N1         -2.9883    1.7169   -1.5024 N.am      1 <0>        -0.5641
      7 C5         -3.3140    1.0951   -0.3634 C.2       1 <0>         0.7115
      8 O2         -4.3293    0.4437   -0.2158 O.2       1 <0>        -0.5349
      9 N2         -2.3922    1.2719    0.6003 N.am      1 <0>        -0.7117
     10 C6         -3.8089    1.6949   -2.7158 C.3       1 <0>         0.1017
     11 C7         -3.4065    0.5227   -3.5731 C.2       1 <0>         0.5039
     12 O3         -2.5217   -0.2208   -3.2068 O.2       1 <0>        -0.4495
     13 N3         -4.0302    0.3009   -4.7471 N.am      1 <0>        -0.6892
     14 C8         -3.6703   -0.7475   -5.5139 C.2       1 <0>         0.6959
     15 O4         -2.7833   -1.4928   -5.1466 O.2       1 <0>        -0.5209
     16 N4         -4.2940   -0.9693   -6.6879 N.am      1 <0>        -0.7301
     17 C9         -3.9028   -2.1088   -7.5213 C.3       1 <0>         0.1842
     18 C10        -4.1123   -3.4077   -6.7403 C.3       1 <0>        -0.1670
     19 C11        -4.7598   -2.1319   -8.7885 C.3       1 <0>        -0.1552
     20 C12        -2.4277   -1.9771   -7.9056 C.3       1 <0>        -0.1670
     21 C13        -0.0167    1.3781    0.0096 C.ar      1 <0>        -0.1046
     22 C14         1.1709    2.0855    0.0021 C.ar      1 <0>        -0.0923
     23 C15         2.3773    1.4107   -0.0145 C.ar      1 <0>        -0.1196
     24 C16         2.3960    0.0285   -0.0217 C.ar      1 <0>        -0.1053
     25 C17         1.2084   -0.6789   -0.0132 C.ar      1 <0>        -0.1167
     26 C18         0.0021   -0.0041    0.0020 C.ar      1 <0>        -0.0905
     27 H1         -2.9608    4.2956   -0.1100 H         1 <0>         0.0514
     28 H2         -3.2647    3.4336    1.4174 H         1 <0>         0.0631
     29 H3         -2.4871    5.0346    1.4385 H         1 <0>         0.0716
     30 H4         -0.8214    3.2315    1.7894 H         1 <0>         0.0925
     31 H5         -0.5176    4.0935    0.2620 H         1 <0>         0.0935
     32 H6         -2.4201    0.9144    1.5016 H         1 <0>         0.4432
     33 H7         -4.8598    1.6010   -2.4420 H         1 <0>         0.1366
     34 H8         -3.6597    2.6202   -3.2722 H         1 <0>         0.1335
     35 H9         -4.7381    0.8957   -5.0402 H         1 <0>         0.4107
     36 H10        -5.0019   -0.3744   -6.9809 H         1 <0>         0.3975
     37 H11        -5.1632   -3.5015   -6.4665 H         1 <0>         0.0547
     38 H12        -3.8213   -4.2555   -7.3604 H         1 <0>         0.0661
     39 H13        -3.5018   -3.3913   -5.8375 H         1 <0>         0.0792
     40 H14        -4.6106   -1.2065   -9.3450 H         1 <0>         0.0634
     41 H15        -4.4688   -2.9797   -9.4087 H         1 <0>         0.0776
     42 H16        -5.8107   -2.2257   -8.5148 H         1 <0>         0.0635
     43 H17        -1.8172   -1.9607   -7.0028 H         1 <0>         0.0792
     44 H18        -2.1367   -2.8249   -8.5257 H         1 <0>         0.0661
     45 H19        -2.2785   -1.0517   -8.4620 H         1 <0>         0.0545
     46 H20         1.1563    3.1654    0.0081 H         1 <0>         0.1297
     47 H21         3.3051    1.9634   -0.0205 H         1 <0>         0.1285
     48 H22         3.3385   -0.4987   -0.0335 H         1 <0>         0.1262
     49 H23         1.2231   -1.7588   -0.0188 H         1 <0>         0.1267
     50 H24        -0.9258   -0.5567    0.0083 H         1 <0>         0.1231
@<TRIPOS>BOND
     1    1    2 1
     2    1   27 1
     3    1   28 1
     4    1   29 1
     5    2    3 1
     6    2   30 1
     7    2   31 1
     8    3    9 1
     9    3    4 1
    10    3   21 1
    11    4    5 2
    12    4    6 am
    13    6    7 am
    14    6   10 1
    15    7    8 2
    16    7    9 am
    17    9   32 1
    18   10   11 1
    19   10   33 1
    20   10   34 1
    21   11   12 2
    22   11   13 am
    23   13   14 am
    24   13   35 1
    25   14   15 2
    26   14   16 am
    27   16   17 1
    28   16   36 1
    29   17   18 1
    30   17   19 1
    31   17   20 1
    32   18   37 1
    33   18   38 1
    34   18   39 1
    35   19   40 1
    36   19   41 1
    37   19   42 1
    38   20   43 1
    39   20   44 1
    40   20   45 1
    41   21   26 ar
    42   21   22 ar
    43   22   23 ar
    44   22   46 1
    45   23   24 ar
    46   23   47 1
    47   24   25 ar
    48   24   48 1
    49   25   26 ar
    50   25   49 1
    51   26   50 1
@<TRIPOS>MOLECULE
ZINC12767913
   38    39     0     0     0
SMALL
USER_CHARGES
N-(3,4-dichlorophenyl)-2-[[2-[(4R)-2,5-dioxoimidazolidin-4-yl]acetyl]-methyl-amino]acetamide
@<TRIPOS>ATOM
      1 C1         -2.1368    6.1979    1.6707 C.3       1 <0>         0.0718
      2 N1         -2.3230    5.5796    0.3558 N.am      1 <0>        -0.5983
      3 C2         -2.5703    4.1393    0.2520 C.3       1 <0>         0.0989
      4 C3         -1.2564    3.4117    0.1283 C.2       1 <0>         0.4969
      5 O1         -0.2159    4.0348    0.1269 O.2       1 <0>        -0.5013
      6 N2         -1.2377    2.0684    0.0192 N.am      1 <0>        -0.6720
      7 C4         -0.0170    1.3836    0.0155 C.ar      1 <0>         0.1656
      8 C5          0.1265    0.2219   -0.7321 C.ar      1 <0>        -0.1293
      9 C6          1.3300   -0.4553   -0.7304 C.ar      1 <0>        -0.0761
     10 C7          2.3932    0.0220    0.0158 C.ar      1 <0>        -0.0483
     11 C8          2.2532    1.1798    0.7625 C.ar      1 <0>        -0.0105
     12 C9          1.0505    1.8613    0.7635 C.ar      1 <0>        -0.1047
     13 Cl1         3.5889    1.7759    1.6975 Cl        1 <0>        -0.0399
     14 Cl2         3.9049   -0.8314    0.0152 Cl        1 <0>        -0.0452
     15 C10        -2.2669    6.3356   -0.7585 C.2       1 <0>         0.5289
     16 O2         -2.4210    5.8237   -1.8471 O.2       1 <0>        -0.5314
     17 C11        -2.0125    7.8172   -0.6518 C.3       1 <0>        -0.1419
     18 C12        -1.9976    8.4342   -2.0518 C.3       1 <0>         0.1075
     19 H1         -1.2824    7.9159   -2.6905 H         1 <0>         0.1391
     20 C13        -1.6736    9.9133   -1.9793 C.2       1 <0>         0.5300
     21 O3         -0.6574   10.4203   -1.5550 O.2       1 <0>        -0.4586
     22 N3         -2.7498   10.5472   -2.4853 N.am      1 <0>        -0.6782
     23 C14        -3.6988    9.6833   -2.8635 C.2       1 <0>         0.7015
     24 O4         -4.7616   10.0173   -3.3494 O.2       1 <0>        -0.5388
     25 N4         -3.3444    8.4001   -2.6476 N.am      1 <0>        -0.7141
     26 H2         -1.0790    6.1822    1.9331 H         1 <0>         0.0684
     27 H3         -2.4883    7.2293    1.6403 H         1 <0>         0.0794
     28 H4         -2.7046    5.6425    2.4172 H         1 <0>         0.0782
     29 H5         -3.1814    3.9380   -0.6279 H         1 <0>         0.1221
     30 H6         -3.0936    3.7953    1.1442 H         1 <0>         0.1183
     31 H7         -2.0701    1.5763   -0.0568 H         1 <0>         0.4172
     32 H8         -0.7028   -0.1517   -1.3145 H         1 <0>         0.1438
     33 H9          1.4416   -1.3587   -1.3117 H         1 <0>         0.1491
     34 H10         0.9413    2.7642    1.3459 H         1 <0>         0.1529
     35 H11        -2.8019    8.2796   -0.0593 H         1 <0>         0.1105
     36 H12        -1.0497    7.9867   -0.1697 H         1 <0>         0.1262
     37 H13        -2.8270   11.5109   -2.5650 H         1 <0>         0.4357
     38 H14        -3.8710    7.6098   -2.8450 H         1 <0>         0.4464
@<TRIPOS>BOND
     1    1    2 1
     2    1   26 1
     3    1   27 1
     4    1   28 1
     5    2    3 1
     6    2   15 am
     7    3    4 1
     8    3   29 1
     9    3   30 1
    10    4    5 2
    11    4    6 am
    12    6    7 1
    13    6   31 1
    14    7   12 ar
    15    7    8 ar
    16    8    9 ar
    17    8   32 1
    18    9   10 ar
    19    9   33 1
    20   10   11 ar
    21   10   14 1
    22   11   12 ar
    23   11   13 1
    24   12   34 1
    25   15   16 2
    26   15   17 1
    27   17   18 1
    28   17   35 1
    29   17   36 1
    30   18   19 1
    31   18   25 1
    32   18   20 1
    33   20   21 2
    34   20   22 am
    35   22   23 am
    36   22   37 1
    37   23   24 2
    38   23   25 am
    39   25   38 1
@<TRIPOS>MOLECULE
ZINC25447055
   46    48     0     0     0
SMALL
USER_CHARGES
2-(2-amino-5,7-dimethyl-[1,2,4]triazolo[1,5-a]pyrimidin-6-yl)-N-(4-tert-butylthiazol-2-yl)acetamide
@<TRIPOS>ATOM
      1 C1          5.5215    1.9555   -0.0401 C.3       1 <0>        -0.1172
      2 C2          4.0166    1.8773   -0.0262 C.2       1 <0>         0.2564
      3 C3          3.2579    3.0532   -0.0122 C.2       1 <0>        -0.1995
      4 C4          1.9020    2.9678    0.0003 C.2       1 <0>         0.2372
      5 N1          1.3183    1.7411   -0.0012 N.pl3     1 <0>        -0.3187
      6 C5          2.0878    0.6120   -0.0146 C.2       1 <0>         0.4800
      7 N2          3.4224    0.7051   -0.0268 N.2       1 <0>        -0.4697
      8 N3          1.2628   -0.4299   -0.0123 N.2       1 <0>        -0.5626
      9 C6          0.0021   -0.0041    0.0020 C.2       1 <0>         0.5261
     10 N4         -0.0158    1.3133    0.0093 N.2       1 <0>        -0.3928
     11 N5         -1.1235   -0.8236    0.0079 N.pl3     1 <0>        -0.8366
     12 C7          1.0576    4.2160    0.0150 C.3       1 <0>        -0.1318
     13 C8          3.9370    4.3985   -0.0105 C.3       1 <0>        -0.0775
     14 C9          4.1503    4.8553   -1.4307 C.2       1 <0>         0.5130
     15 O1          3.7866    4.1572   -2.3534 O.2       1 <0>        -0.4902
     16 N6          4.7451    6.0397   -1.6754 N.am      1 <0>        -0.6234
     17 C10         4.9418    6.4611   -2.9853 C.2       1 <0>         0.2850
     18 N7          5.4933    7.5762   -3.4231 N.2       1 <0>        -0.5368
     19 C11         5.6076    7.8211   -4.7137 C.2       1 <0>         0.0967
     20 C12         5.1326    6.9025   -5.5901 C.2       1 <0>        -0.2615
     21 S1          4.5176    5.6577   -4.4652 S.3       1 <0>         0.1440
     22 C13         6.2456    9.0956   -5.2030 C.3       1 <0>         0.0027
     23 C14         5.1599   10.0489   -5.7064 C.3       1 <0>        -0.1389
     24 C15         7.0118    9.7559   -4.0550 C.3       1 <0>        -0.1274
     25 C16         7.2130    8.7761   -6.3446 C.3       1 <0>        -0.1416
     26 H1          5.8339    3.0102   -0.0374 H         1 <0>         0.0838
     27 H2          5.9060    1.4615   -0.9446 H         1 <0>         0.0979
     28 H3          5.9231    1.4519    0.8516 H         1 <0>         0.0986
     29 H4         -2.1288   -0.3772    0.0199 H         1 <0>         0.4405
     30 H5         -1.0075   -1.9174    0.0005 H         1 <0>         0.4427
     31 H6         -0.0068    3.9385    0.0237 H         1 <0>         0.0957
     32 H7          1.2731    4.8150   -0.8821 H         1 <0>         0.0963
     33 H8          1.2902    4.8055    0.9141 H         1 <0>         0.1013
     34 H9          3.3052    5.1275    0.5182 H         1 <0>         0.1234
     35 H10         4.9087    4.3181    0.4987 H         1 <0>         0.1312
     36 H11         5.0749    6.6729   -0.8385 H         1 <0>         0.4545
     37 H12         5.1276    6.9184   -6.6699 H         1 <0>         0.1927
     38 H13         5.6257   10.9792   -6.0636 H         1 <0>         0.0637
     39 H14         4.4644   10.2786   -4.8857 H         1 <0>         0.0563
     40 H15         4.6091    9.5742   -6.5318 H         1 <0>         0.0571
     41 H16         7.4775   10.6862   -4.4123 H         1 <0>         0.0526
     42 H17         7.7924    9.0705   -3.6931 H         1 <0>         0.0540
     43 H18         6.3163    9.9856   -3.2343 H         1 <0>         0.0626
     44 H19         7.6787    9.7065   -6.7018 H         1 <0>         0.0644
     45 H20         6.6621    8.3014   -7.1700 H         1 <0>         0.0585
     46 H21         7.9936    8.0907   -5.9827 H         1 <0>         0.0575
@<TRIPOS>BOND
     1    1    2 1
     2    1   26 1
     3    1   27 1
     4    1   28 1
     5    2    7 2
     6    2    3 1
     7    3    4 2
     8    3   13 1
     9    4    5 1
    10    4   12 1
    11    5   10 1
    12    5    6 1
    13    6    7 1
    14    6    8 2
    15    8    9 1
    16    9   10 2
    17    9   11 1
    18   11   29 1
    19   11   30 1
    20   12   31 1
    21   12   32 1
    22   12   33 1
    23   13   14 1
    24   13   34 1
    25   13   35 1
    26   14   15 2
    27   14   16 am
    28   16   17 1
    29   16   36 1
    30   17   21 1
    31   17   18 2
    32   18   19 1
    33   19   20 2
    34   19   22 1
    35   20   21 1
    36   20   37 1
    37   22   23 1
    38   22   24 1
    39   22   25 1
    40   23   38 1
    41   23   39 1
    42   23   40 1
    43   24   41 1
    44   24   42 1
    45   24   43 1
    46   25   44 1
    47   25   45 1
    48   25   46 1
@<TRIPOS>MOLECULE
ZINC50535579
   34    35     0     0     0
SMALL
USER_CHARGES

@<TRIPOS>ATOM
      1 C1          0.1120    1.1586   -0.7528 C.ar      1 <0>        -0.0927
      2 C2          1.2977    1.8670   -0.7569 C.ar      1 <0>        -0.0700
      3 C3          2.3814    1.4083   -0.0189 C.ar      1 <0>         0.1453
      4 C4          2.2684    0.2378    0.7213 C.ar      1 <0>        -0.0773
      5 C5          1.0801   -0.4653    0.7209 C.ar      1 <0>        -0.0274
      6 C6          0.0030   -0.0058   -0.0151 C.ar      1 <0>        -0.0628
      7 N1          0.9590   -1.7126    1.5087 N.pl3     1 <0>         0.0316
      8 O1          1.9002   -2.1151    2.1520 O.2       1 <0>        -0.1533
      9 O2         -0.0812   -2.3288    1.5089 O.3       1 <0>        -0.1484
     10 N2          3.5826    2.1222   -0.0212 N.am      1 <0>        -0.6378
     11 C7          3.5674    3.4665   -0.1160 C.2       1 <0>         0.5288
     12 O3          2.5109    4.0639   -0.1029 O.2       1 <0>        -0.4896
     13 C8          4.8505    4.2211   -0.2372 C.2       1 <0>         0.5074
     14 O4          5.9069    3.6238   -0.2503 O.2       1 <0>        -0.5056
     15 N3          4.8353    5.5655   -0.3321 N.am      1 <0>        -0.4846
     16 N4          6.0390    6.2734   -0.4458 N.pl3     1 <0>        -0.5294
     17 C9          6.0232    7.6680   -0.5442 C.ar      1 <0>         0.2267
     18 C10         4.8156    8.3532   -0.5237 C.ar      1 <0>        -0.1746
     19 C11         4.8027    9.7309   -0.6211 C.ar      1 <0>        -0.0470
     20 C12         5.9917   10.4291   -0.7396 C.ar      1 <0>        -0.0750
     21 C13         7.1969    9.7497   -0.7604 C.ar      1 <0>        -0.0454
     22 C14         7.2164    8.3715   -0.6571 C.ar      1 <0>        -0.0922
     23 Cl1         8.7290    7.5199   -0.6755 Cl        1 <0>        -0.0481
     24 Cl2         5.9711   12.1606   -0.8629 Cl        1 <0>        -0.0556
     25 H1         -0.7324    1.5170   -1.3228 H         1 <0>         0.1569
     26 H2          1.3823    2.7762   -1.3336 H         1 <0>         0.1551
     27 H3          3.1092   -0.1217    1.2959 H         1 <0>         0.1608
     28 H4         -0.9253   -0.5578   -0.0137 H         1 <0>         0.1593
     29 H5          4.4274    1.6502    0.0455 H         1 <0>         0.4316
     30 H6          3.9910    6.0429   -0.3217 H         1 <0>         0.4370
     31 H7          6.8833    5.7959   -0.4563 H         1 <0>         0.4418
     32 H8          3.8871    7.8093   -0.4320 H         1 <0>         0.1376
     33 H9          3.8636   10.2640   -0.6051 H         1 <0>         0.1461
     34 H10         8.1234   10.2970   -0.8530 H         1 <0>         0.1510
@<TRIPOS>BOND
     1    1    6 ar
     2    1    2 ar
     3    1   25 1
     4    2    3 ar
     5    2   26 1
     6    3    4 ar
     7    3   10 1
     8    4    5 ar
     9    4   27 1
    10    5    6 ar
    11    5    7 1
    12    6   28 1
    13    7    8 2
    14    7    9 1
    15   10   11 am
    16   10   29 1
    17   11   12 2
    18   11   13 1
    19   13   14 2
    20   13   15 am
    21   15   16 1
    22   15   30 1
    23   16   17 1
    24   16   31 1
    25   17   22 ar
    26   17   18 ar
    27   18   19 ar
    28   18   32 1
    29   19   20 ar
    30   19   33 1
    31   20   21 ar
    32   20   24 1
    33   21   22 ar
    34   21   34 1
    35   22   23 1
@<TRIPOS>MOLECULE
ZINC63823018
   53    56     0     0     0
SMALL
USER_CHARGES

@<TRIPOS>ATOM
      1 C1         -0.7465    0.8833    0.0558 C.3       1 <0>        -0.1337
      2 C2         -0.8134   -0.6345   -0.1249 C.3       1 <0>         0.0804
      3 H1         -0.2062   -0.9507   -0.9731 H         1 <0>         0.0769
      4 C3         -2.2667   -1.1038   -0.2860 C.3       1 <0>        -0.1147
      5 H2         -2.9455   -0.5489    0.3616 H         1 <0>         0.1130
      6 C4         -2.7892   -1.1829   -1.7105 C.3       1 <0>        -0.0367
      7 H3         -2.1565   -1.8432   -2.3037 H         1 <0>         0.0935
      8 C5         -4.2137   -1.7544   -1.6276 C.3       1 <0>        -0.1285
      9 C6         -4.3355   -2.8417   -0.6032 C.2       1 <0>         0.5279
     10 O1         -5.3766   -3.4627   -0.5663 O.2       1 <0>        -0.5352
     11 N1         -3.3750   -3.1823    0.2808 N.am      1 <0>        -0.7115
     12 C7         -2.0789   -2.5762    0.1834 C.3       1 <0>         0.3588
     13 H4         -1.5265   -3.1049   -0.5934 H         1 <0>         0.0680
     14 N2         -1.2015   -2.4421    1.3252 N.pl3     1 <0>        -0.4584
     15 N3         -0.3945   -1.3381    1.1215 N.3       1 <0>        -0.4312
     16 C8         -1.1744   -3.2806    2.4387 C.2       1 <0>         0.3985
     17 C9         -0.2619   -3.0286    3.4821 C.2       1 <0>        -0.0932
     18 C10        -0.2364   -3.8465    4.5678 C.2       1 <0>        -0.1346
     19 C11        -1.1274   -4.9374    4.6310 C.2       1 <0>         0.4943
     20 O2         -1.1193   -5.6825    5.5984 O.2       1 <0>        -0.5392
     21 N4         -1.9888   -5.1520    3.6164 N.am      1 <0>        -0.4960
     22 N5         -2.0018   -4.2948    2.5100 N.2       1 <0>        -0.3177
     23 C12        -2.8183    0.1923   -2.3261 C.ar      1 <0>        -0.0379
     24 C13        -3.5804    1.1916   -1.7489 C.ar      1 <0>        -0.1504
     25 C14        -3.6092    2.4542   -2.3111 C.ar      1 <0>        -0.0731
     26 C15        -2.8766    2.7206   -3.4518 C.ar      1 <0>        -0.1519
     27 C16        -2.1115    1.7200   -4.0327 C.ar      1 <0>         0.1382
     28 C17        -2.0794    0.4552   -3.4630 C.ar      1 <0>        -0.2027
     29 O3         -1.3900    1.9796   -5.1548 O.3       1 <0>        -0.3094
     30 C18        -0.5343    0.9390   -5.6311 C.3       1 <0>         0.0782
     31 C19        -1.3396   -0.0225   -6.5074 C.3       1 <0>        -0.1827
     32 C20         0.6017    1.5495   -6.4543 C.3       1 <0>        -0.1509
     33 H5          0.2882    1.1844    0.2199 H         1 <0>         0.0634
     34 H6         -1.1297    1.3730   -0.8394 H         1 <0>         0.0770
     35 H7         -1.3502    1.1738    0.9156 H         1 <0>         0.0689
     36 H8         -4.9025   -0.9494   -1.3714 H         1 <0>         0.1131
     37 H9         -4.4902   -2.1557   -2.6026 H         1 <0>         0.1119
     38 H10        -3.5595   -3.8253    0.9832 H         1 <0>         0.4166
     39 H11         0.5780   -1.6034    1.0775 H         1 <0>         0.3429
     40 H12         0.4149   -2.1893    3.4196 H         1 <0>         0.1567
     41 H13         0.4593   -3.6628    5.3733 H         1 <0>         0.1689
     42 H14        -2.6039   -5.9011    3.6548 H         1 <0>         0.4397
     43 H15        -4.1542    0.9851   -0.8575 H         1 <0>         0.1231
     44 H16        -4.2051    3.2329   -1.8584 H         1 <0>         0.1309
     45 H17        -2.9000    3.7070   -3.8911 H         1 <0>         0.1304
     46 H18        -1.4807   -0.3242   -3.9107 H         1 <0>         0.1294
     47 H19        -0.1171    0.3952   -4.7835 H         1 <0>         0.0727
     48 H20        -0.6868   -0.8163   -6.8707 H         1 <0>         0.0728
     49 H21        -2.1488   -0.4575   -5.9209 H         1 <0>         0.0631
     50 H22        -1.7567    0.5213   -7.3550 H         1 <0>         0.0690
     51 H23         1.1754    2.2345   -5.8300 H         1 <0>         0.0657
     52 H24         1.2544    0.7558   -6.8176 H         1 <0>         0.0778
     53 H25         0.1845    2.0933   -7.3019 H         1 <0>         0.0682
@<TRIPOS>BOND
     1    1    2 1
     2    1   33 1
     3    1   34 1
     4    1   35 1
     5    2    3 1
     6    2   15 1
     7    2    4 1
     8    4    5 1
     9    4   12 1
    10    4    6 1
    11    6    7 1
    12    6    8 1
    13    6   23 1
    14    8    9 1
    15    8   36 1
    16    8   37 1
    17    9   10 2
    18    9   11 am
    19   11   12 1
    20   11   38 1
    21   12   13 1
    22   12   14 1
    23   14   15 1
    24   14   16 1
    25   15   39 1
    26   16   17 1
    27   16   22 2
    28   17   18 2
    29   17   40 1
    30   18   19 1
    31   18   41 1
    32   19   20 2
    33   19   21 am
    34   21   22 1
    35   21   42 1
    36   23   28 ar
    37   23   24 ar
    38   24   25 ar
    39   24   43 1
    40   25   26 ar
    41   25   44 1
    42   26   27 ar
    43   26   45 1
    44   27   28 ar
    45   27   29 1
    46   28   46 1
    47   29   30 1
    48   30   31 1
    49   30   32 1
    50   30   47 1
    51   31   48 1
    52   31   49 1
    53   31   50 1
    54   32   51 1
    55   32   52 1
    56   32   53 1
@<TRIPOS>MOLECULE
ZINC02568468
   36    38     0     0     0
SMALL
USER_CHARGES
N'-(benzo[1,3]dioxol-5-ylmethyleneamino)-N-(2,3-dichlorophenyl)-oxamide
@<TRIPOS>ATOM
      1 C1         -5.9842   -5.1124   -0.3488 C.ar      1 <0>        -0.0812
      2 C2         -4.8043   -4.4028   -0.4616 C.ar      1 <0>        -0.1041
      3 C3         -3.6410   -4.8949    0.1160 C.ar      1 <0>         0.1598
      4 C4         -3.6669   -6.1039    0.8020 C.ar      1 <0>        -0.0571
      5 C5         -4.8526   -6.8063    0.9161 C.ar      1 <0>        -0.0137
      6 C6         -6.0093   -6.3117    0.3386 C.ar      1 <0>        -0.1064
      7 Cl1        -4.8890   -8.3127    1.7782 Cl        1 <0>        -0.0374
      8 Cl2        -2.2145   -6.7271    1.5204 Cl        1 <0>        -0.0347
      9 N1         -2.4458   -4.1792    0.0030 N.am      1 <0>        -0.6372
     10 C7         -2.4646   -2.8315    0.0046 C.2       1 <0>         0.5224
     11 O1         -3.5243   -2.2392    0.0219 O.2       1 <0>        -0.4910
     12 C8         -1.1843   -2.0681   -0.0149 C.2       1 <0>         0.5319
     13 O2         -0.1242   -2.6606   -0.0322 O.2       1 <0>        -0.4701
     14 N2         -1.2031   -0.7205   -0.0133 N.am      1 <0>        -0.5556
     15 N3          0.0002   -0.0031   -0.0315 N.2       1 <0>        -0.2304
     16 C9         -0.0180    1.2961   -0.0300 C.2       1 <0>         0.1337
     17 C10         1.2474    2.0505   -0.0492 C.ar      1 <0>        -0.0553
     18 C11         2.4686    1.3707   -0.0634 C.ar      1 <0>        -0.0603
     19 C12         3.6510    2.0789   -0.0865 C.ar      1 <0>        -0.1062
     20 C13         3.6345    3.4667   -0.0855 C.ar      1 <0>         0.0555
     21 C14         2.4195    4.1516   -0.0657 C.ar      1 <0>         0.0264
     22 C15         1.2302    3.4481   -0.0476 C.ar      1 <0>        -0.0670
     23 O3          2.6753    5.4927   -0.0688 O.3       1 <0>        -0.3061
     24 C16         4.0418    5.6221   -0.5036 C.3       1 <0>         0.2125
     25 O4          4.6485    4.3801   -0.1009 O.3       1 <0>        -0.3056
     26 H1         -6.8886   -4.7295   -0.7980 H         1 <0>         0.1476
     27 H2         -4.7865   -3.4658   -0.9983 H         1 <0>         0.1563
     28 H3         -6.9335   -6.8636    0.4256 H         1 <0>         0.1480
     29 H4         -1.6028   -4.6523   -0.0767 H         1 <0>         0.4290
     30 H5         -2.0497   -0.2473    0.0006 H         1 <0>         0.4017
     31 H6         -0.9607    1.8230   -0.0191 H         1 <0>         0.1310
     32 H7          2.4857    0.2909   -0.0603 H         1 <0>         0.1523
     33 H8          4.5935    1.5519   -0.1019 H         1 <0>         0.1429
     34 H9          0.2889    3.9774   -0.0326 H         1 <0>         0.1441
     35 H10         4.0898    5.7383   -1.5863 H         1 <0>         0.0884
     36 H11         4.5241    6.4631   -0.0054 H         1 <0>         0.1354
@<TRIPOS>BOND
     1    1    6 ar
     2    1    2 ar
     3    1   26 1
     4    2    3 ar
     5    2   27 1
     6    3    4 ar
     7    3    9 1
     8    4    5 ar
     9    4    8 1
    10    5    6 ar
    11    5    7 1
    12    6   28 1
    13    9   10 am
    14    9   29 1
    15   10   11 2
    16   10   12 1
    17   12   13 2
    18   12   14 am
    19   14   15 1
    20   14   30 1
    21   15   16 2
    22   16   17 1
    23   16   31 1
    24   17   22 ar
    25   17   18 ar
    26   18   19 ar
    27   18   32 1
    28   19   20 ar
    29   19   33 1
    30   20   25 1
    31   20   21 ar
    32   21   22 ar
    33   21   23 1
    34   22   34 1
    35   23   24 1
    36   24   25 1
    37   24   35 1
    38   24   36 1
@<TRIPOS>MOLECULE
ZINC12598902
   45    47     0     0     0
SMALL
USER_CHARGES
methyl 4-[(E)-3-[[(2R)-2-methyl-3-oxo-4H-1,4-benzoxazin-6-yl]amino]-3-oxo-prop-1-enyl]benzoate
@<TRIPOS>ATOM
      1 C1        -13.3453   10.3894   -1.2498 C.3       1 <0>        -0.1365
      2 C2        -11.9321    9.8417   -1.4593 C.3       1 <0>         0.0781
      3 H1        -11.4842   10.3176   -2.3317 H         1 <0>         0.1057
      4 C3        -11.9987    8.3518   -1.6792 C.2       1 <0>         0.4929
      5 O1        -12.9862    7.8532   -2.1766 O.2       1 <0>        -0.5023
      6 N1        -10.9539    7.5743   -1.3203 N.am      1 <0>        -0.6593
      7 C4         -9.8383    8.1714   -0.7162 C.ar      1 <0>         0.1141
      8 C5         -8.6347    7.4929   -0.6292 C.ar      1 <0>        -0.1253
      9 C6         -7.5436    8.0996   -0.0205 C.ar      1 <0>         0.1570
     10 C7         -7.6583    9.3867    0.4888 C.ar      1 <0>        -0.1337
     11 C8         -8.8587   10.0662    0.3966 C.ar      1 <0>        -0.0848
     12 C9         -9.9500    9.4636   -0.2047 C.ar      1 <0>         0.0642
     13 O2        -11.1369   10.1217   -0.3043 O.3       1 <0>        -0.2989
     14 N2         -6.3260    7.4156    0.0748 N.am      1 <0>        -0.6663
     15 C10        -6.3155    6.0774    0.2345 C.2       1 <0>         0.5484
     16 O3         -7.3612    5.4752    0.3922 O.2       1 <0>        -0.5202
     17 C11        -5.0446    5.3473    0.2184 C.2       1 <0>        -0.2067
     18 C12        -5.0341    4.0093    0.3782 C.2       1 <0>        -0.0148
     19 C13        -3.7574    3.2758    0.3619 C.ar      1 <0>        -0.0433
     20 C14        -3.7460    1.8868    0.5277 C.ar      1 <0>        -0.1035
     21 C15        -2.5521    1.2021    0.5129 C.ar      1 <0>        -0.0553
     22 C16        -1.3516    1.8941    0.3327 C.ar      1 <0>        -0.1149
     23 C17        -1.3616    3.2822    0.1727 C.ar      1 <0>        -0.0625
     24 C18        -2.5550    3.9677    0.1811 C.ar      1 <0>        -0.1146
     25 C19        -0.0705    1.1583    0.3174 C.2       1 <0>         0.5057
     26 O4         -0.0611   -0.0478    0.4614 O.2       1 <0>        -0.5004
     27 O5          1.0867    1.8243    0.1382 O.3       1 <0>        -0.3548
     28 C20         2.3062    1.0362    0.1282 C.3       1 <0>         0.0361
     29 H2        -13.7940    9.9130   -0.3781 H         1 <0>         0.0717
     30 H3        -13.2976   11.4666   -1.0908 H         1 <0>         0.0820
     31 H4        -13.9510   10.1786   -2.1311 H         1 <0>         0.0927
     32 H5        -10.9750    6.6175   -1.4785 H         1 <0>         0.4179
     33 H6         -8.5455    6.4939   -1.0298 H         1 <0>         0.1456
     34 H7         -6.8075    9.8579    0.9585 H         1 <0>         0.1400
     35 H8         -8.9448   11.0670    0.7934 H         1 <0>         0.1465
     36 H9         -5.4898    7.9048    0.0258 H         1 <0>         0.4160
     37 H10        -4.1166    5.8817    0.0785 H         1 <0>         0.1369
     38 H11        -5.9621    3.4749    0.5181 H         1 <0>         0.1426
     39 H12        -4.6738    1.3518    0.6670 H         1 <0>         0.1414
     40 H13        -2.5432    0.1298    0.6409 H         1 <0>         0.1438
     41 H14        -0.4328    3.8167    0.0383 H         1 <0>         0.1439
     42 H15        -2.5628    5.0401    0.0531 H         1 <0>         0.1382
     43 H16         2.4114    0.5175    1.0811 H         1 <0>         0.0657
     44 H17         2.2603    0.3061   -0.6798 H         1 <0>         0.0656
     45 H18         3.1623    1.6935   -0.0241 H         1 <0>         0.1055
@<TRIPOS>BOND
     1    1    2 1
     2    1   29 1
     3    1   30 1
     4    1   31 1
     5    2    3 1
     6    2   13 1
     7    2    4 1
     8    4    5 2
     9    4    6 am
    10    6    7 1
    11    6   32 1
    12    7   12 ar
    13    7    8 ar
    14    8    9 ar
    15    8   33 1
    16    9   10 ar
    17    9   14 1
    18   10   11 ar
    19   10   34 1
    20   11   12 ar
    21   11   35 1
    22   12   13 1
    23   14   15 am
    24   14   36 1
    25   15   16 2
    26   15   17 1
    27   17   18 2
    28   17   37 1
    29   18   19 1
    30   18   38 1
    31   19   24 ar
    32   19   20 ar
    33   20   21 ar
    34   20   39 1
    35   21   22 ar
    36   21   40 1
    37   22   23 ar
    38   22   25 1
    39   23   24 ar
    40   23   41 1
    41   24   42 1
    42   25   26 2
    43   25   27 1
    44   27   28 1
    45   28   43 1
    46   28   44 1
    47   28   45 1
@<TRIPOS>MOLECULE
ZINC06506589
   38    40     0     0     0
SMALL
USER_CHARGES

@<TRIPOS>ATOM
      1 C1         -0.0612    1.5020    0.0095 C.3       1 <0>        -0.1142
      2 C2         -0.0357   -0.0047    0.0013 C.ar      1 <0>        -0.0633
      3 C3         -0.0377   -0.6873   -1.2061 C.ar      1 <0>        -0.1223
      4 C4         -0.0146   -2.0638   -1.2307 C.ar      1 <0>        -0.0618
      5 C5          0.0116   -2.7790   -0.0307 C.ar      1 <0>         0.0500
      6 C6          0.0140   -2.0826    1.1891 C.ar      1 <0>         0.0624
      7 C7         -0.0047   -0.6962    1.1949 C.ar      1 <0>        -0.1137
      8 N1          0.0424   -3.0467    2.1836 N.pl3     1 <0>        -0.5800
      9 H1          0.0507   -2.8865    3.1402 H         1 <0>         0.4285
     10 C8          0.0562   -4.2653    1.5657 C.2       1 <0>         0.2464
     11 N2          0.0380   -4.1048    0.2651 N.2       1 <0>        -0.4944
     12 S1          0.0938   -5.8201    2.3937 S.3       1 <0>         0.0755
     13 C9          0.0985   -7.0348    1.0465 C.3       1 <0>        -0.1427
     14 C10         0.1301   -8.4262    1.6246 C.2       1 <0>         0.5370
     15 O1          0.1478   -8.5829    2.8272 O.2       1 <0>        -0.4946
     16 N3          0.1388   -9.4963    0.8054 N.am      1 <0>        -0.6630
     17 C11         0.2658  -10.7850    1.3383 C.ar      1 <0>         0.1367
     18 C12         0.9769  -11.7566    0.6462 C.ar      1 <0>        -0.0602
     19 C13         1.1010  -13.0268    1.1735 C.ar      1 <0>        -0.1337
     20 C14         0.5165  -13.3323    2.3913 C.ar      1 <0>         0.1598
     21 C15        -0.1929  -12.3651    3.0828 C.ar      1 <0>        -0.0702
     22 C16        -0.3142  -11.0915    2.5618 C.ar      1 <0>        -0.0357
     23 N4         -0.8171  -12.6944    4.3839 N.pl3     1 <0>         0.0331
     24 O2         -1.4366  -11.8502    4.9881 O.2       1 <0>        -0.1433
     25 O3         -0.7073  -13.8077    4.8424 O.3       1 <0>        -0.1411
     26 F1          0.6382  -14.5759    2.9049 F         1 <0>        -0.0994
     27 H2          0.9600    1.8828   -0.0051 H         1 <0>         0.0739
     28 H3         -0.5955    1.8611   -0.8702 H         1 <0>         0.0711
     29 H4         -0.5667    1.8520    0.9096 H         1 <0>         0.0677
     30 H5         -0.0579   -0.1350   -2.1340 H         1 <0>         0.1326
     31 H6         -0.0170   -2.5889   -2.1745 H         1 <0>         0.1314
     32 H7          0.0012   -0.1587    2.1317 H         1 <0>         0.1255
     33 H8         -0.8013   -6.9123    0.4436 H         1 <0>         0.1352
     34 H9          0.9782   -6.8810    0.4216 H         1 <0>         0.1351
     35 H10         0.0570   -9.3738   -0.1534 H         1 <0>         0.4243
     36 H11         1.4323  -11.5189   -0.3038 H         1 <0>         0.1599
     37 H12         1.6540  -13.7827    0.6356 H         1 <0>         0.1682
     38 H13        -0.8638  -10.3361    3.1037 H         1 <0>         0.1793
@<TRIPOS>BOND
     1    1    2 1
     2    1   27 1
     3    1   28 1
     4    1   29 1
     5    2    7 ar
     6    2    3 ar
     7    3    4 ar
     8    3   30 1
     9    4    5 ar
    10    4   31 1
    11    5   11 1
    12    5    6 ar
    13    6    7 ar
    14    6    8 1
    15    7   32 1
    16    8    9 1
    17    8   10 1
    18   10   11 2
    19   10   12 1
    20   12   13 1
    21   13   14 1
    22   13   33 1
    23   13   34 1
    24   14   15 2
    25   14   16 am
    26   16   17 1
    27   16   35 1
    28   17   22 ar
    29   17   18 ar
    30   18   19 ar
    31   18   36 1
    32   19   20 ar
    33   19   37 1
    34   20   21 ar
    35   20   26 1
    36   21   22 ar
    37   21   23 1
    38   22   38 1
    39   23   24 2
    40   23   25 1
@<TRIPOS>MOLECULE
ZINC14711150
   38    41     0     0     0
SMALL
USER_CHARGES

@<TRIPOS>ATOM
      1 C1          0.9263   -0.0475    2.2844 C.ar      1 <0>        -0.1376
      2 C2          2.2021    0.4222    2.5414 C.ar      1 <0>        -0.1100
      3 C3          3.3013   -0.4099    2.4097 C.ar      1 <0>        -0.1216
      4 C4          3.1325   -1.7305    2.0164 C.ar      1 <0>         0.0611
      5 C5          1.8368   -2.2050    1.7566 C.ar      1 <0>        -0.0526
      6 C6          0.7366   -1.3592    1.8921 C.ar      1 <0>        -0.0699
      7 C7          1.9881   -3.6188    1.3678 C.2       1 <0>        -0.1461
      8 C8          3.4306   -3.8797    1.4319 C.2       1 <0>         0.0914
      9 N1          4.0404   -2.7612    1.8095 N.pl3     1 <0>        -0.5548
     10 H1          4.9995   -2.6751    1.9259 H         1 <0>         0.4198
     11 C9          0.9736   -4.5192    1.0142 C.2       1 <0>         0.1688
     12 C10         1.2662   -5.9276    0.6465 C.2       1 <0>        -0.3728
     13 S1         -0.2723   -6.5301    0.3251 S.3       1 <0>         0.2893
     14 C11        -1.2146   -5.0522    0.6484 C.2       1 <0>         0.2312
     15 N2         -0.2952   -4.1667    0.9943 N.2       1 <0>        -0.5036
     16 N3         -2.5664   -4.8771    0.5638 N.am      1 <0>        -0.5921
     17 C12        -3.3573   -5.9046    0.1962 C.2       1 <0>         0.5563
     18 O1         -2.8677   -6.9868   -0.0599 O.2       1 <0>        -0.4556
     19 C13        -4.8198   -5.7151    0.1047 C.ar      1 <0>        -0.0652
     20 C14        -5.5354   -5.2376    1.2048 C.ar      1 <0>        -0.0839
     21 C15        -6.9003   -5.0626    1.1123 C.ar      1 <0>        -0.0631
     22 C16        -7.5608   -5.3590   -0.0672 C.ar      1 <0>        -0.0919
     23 C17        -6.8580   -5.8323   -1.1609 C.ar      1 <0>        -0.0508
     24 C18        -5.4917   -6.0070   -1.0838 C.ar      1 <0>         0.0376
     25 N4         -4.7406   -6.5082   -2.2566 N.pl3     1 <0>        -0.0332
     26 O2         -5.3886   -6.9198   -3.3268 O.2       1 <0>        -0.1612
     27 O3         -3.4243   -6.5424   -2.2301 O.3       1 <0>        -0.1287
     28 H2          0.0770    0.6105    2.3949 H         1 <0>         0.1230
     29 H3          2.3422    1.4484    2.8476 H         1 <0>         0.1249
     30 H4          4.2919   -0.0306    2.6130 H         1 <0>         0.1191
     31 H5         -0.2588   -1.7271    1.6911 H         1 <0>         0.1310
     32 H6          3.9138   -4.8199    1.2105 H         1 <0>         0.1855
     33 H7          2.2189   -6.4340    0.5978 H         1 <0>         0.1921
     34 H8         -2.9572   -4.0132    0.7683 H         1 <0>         0.4245
     35 H9         -5.0213   -5.0063    2.1259 H         1 <0>         0.1581
     36 H10        -7.4550   -4.6938    1.9624 H         1 <0>         0.1567
     37 H11        -8.6298   -5.2204   -0.1341 H         1 <0>         0.1587
     38 H12        -7.3797   -6.0620   -2.0782 H         1 <0>         0.1658
@<TRIPOS>BOND
     1    1    6 ar
     2    1    2 ar
     3    1   28 1
     4    2    3 ar
     5    2   29 1
     6    3    4 ar
     7    3   30 1
     8    4    9 1
     9    4    5 ar
    10    5    6 ar
    11    5    7 1
    12    6   31 1
    13    7    8 2
    14    7   11 1
    15    8    9 1
    16    8   32 1
    17    9   10 1
    18   11   15 1
    19   11   12 2
    20   12   13 1
    21   12   33 1
    22   13   14 1
    23   14   15 2
    24   14   16 1
    25   16   17 am
    26   16   34 1
    27   17   18 2
    28   17   19 1
    29   19   24 ar
    30   19   20 ar
    31   20   21 ar
    32   20   35 1
    33   21   22 ar
    34   21   36 1
    35   22   23 ar
    36   22   37 1
    37   23   24 ar
    38   23   38 1
    39   24   25 1
    40   25   26 2
    41   25   27 1
