@<TRIPOS>MOLECULE
2OWB-626
 57 61 0 0 0
SMALL
SF_CHARGES


@<TRIPOS>ATOM
1    C        -0.6310   28.7700   64.1010  C.2        1 SUBUNIT      0.6626
2    O        -0.2580   29.7610   63.4780  O.2        1 SUBUNIT     -0.5274
3    N        -0.0340   28.4200   65.2440  N.am       1 SUBUNIT     -0.4234
4    N         2.2070   28.5660   68.0640  N.2        1 SUBUNIT     -0.2211
5    C         1.0950   26.8180   68.4280  C.2        1 SUBUNIT      0.3104
6    N         2.0440   27.5860   68.8750  N.2        1 SUBUNIT     -0.2333
7    N         0.7470   25.6700   69.1520  N.am       1 SUBUNIT     -0.5467
8    C        -0.1730   24.7700   68.7470  C.2        1 SUBUNIT      0.6786
9    C        -0.4150   23.5420   69.5720  C.2        1 SUBUNIT     -0.0249
10   O        -0.8200   24.8810   67.7080  O.2        1 SUBUNIT     -0.5351
11   C         0.2030   23.3230   70.8220  C.2        1 SUBUNIT     -0.0954
12   C        -0.0320   22.1590   71.5690  C.2        1 SUBUNIT     -0.1036
13   C        -1.5290   21.3650   69.8610  C.2        1 SUBUNIT     -0.1036
14   C        -1.2930   22.5310   69.1120  C.2        1 SUBUNIT     -0.0954
15   C         1.3560   28.5080   66.9920  C.2        1 SUBUNIT      0.1464
16   C         0.6220   27.4120   67.1700  C.2        1 SUBUNIT     -0.0606
17   C        -0.3620   27.2160   66.0640  C.3        1 SUBUNIT      0.1773
18   C         1.0500   29.2840   65.7690  C.2        1 SUBUNIT      0.0611
19   N        -1.1260   19.9640   71.9180  N.pl3      1 SUBUNIT     -0.4905
20   C        -1.7640   18.7760   71.3230  C.3        1 SUBUNIT      0.1555
21   C        -0.7340   18.0130   70.4850  C.3        1 SUBUNIT      0.1560
22   N         0.4230   17.6180   71.3230  N.4        1 SUBUNIT     -0.3220
23   C         0.9990   18.7730   72.0480  C.3        1 SUBUNIT      0.1560
24   C        -0.0820   19.5050   72.8470  C.3        1 SUBUNIT      0.1555
25   C         1.4540   16.8830   70.5530  C.3        1 SUBUNIT      0.1309
26   C        -0.9040   21.1450   71.1150  C.2        1 SUBUNIT      0.1316
27   C        -1.1010   25.1660   60.8630  C.2        1 SUBUNIT     -0.0999
28   C         0.0640   25.9230   60.9060  C.2        1 SUBUNIT     -0.0905
29   S        -2.3310   25.7200   61.9460  S.3        1 SUBUNIT      0.0060
30   C        -0.0550   27.0070   61.8670  C.2        1 SUBUNIT     -0.0935
31   C        -1.3080   26.9940   62.4920  C.2        1 SUBUNIT     -0.0367
32   C        -1.7960   27.9610   63.5460  C.3        1 SUBUNIT     -0.0277
33   H         1.2022   25.4888   70.0329  H          1 SUBUNIT      0.3388
34   H         0.8732   24.0672   71.2154  H          1 SUBUNIT      0.1222
35   H         0.4679   22.0386   72.5142  H          1 SUBUNIT      0.1222
36   H        -2.2021   20.6228   69.4687  H          1 SUBUNIT      0.1222
37   H        -1.7932   22.6546   68.1674  H          1 SUBUNIT      0.1222
38   H        -1.3953   27.2348   66.4258  H          1 SUBUNIT      0.0413
39   H        -0.1835   26.2850   65.5159  H          1 SUBUNIT      0.0413
40   H         1.4803   30.1914   65.3826  H          1 SUBUNIT      0.0869
41   H        -2.1421   18.1342   72.1256  H          1 SUBUNIT      0.0385
42   H        -2.5969   19.0978   70.6892  H          1 SUBUNIT      0.0385
43   H        -1.1937   17.1103   70.0693  H          1 SUBUNIT      0.0397
44   H        -0.3781   18.6508   69.6692  H          1 SUBUNIT      0.0397
45   H         0.0693   16.9775   72.0163  H          1 SUBUNIT      0.3342
46   H         1.7752   18.4089   72.7292  H          1 SUBUNIT      0.0397
47   H         1.4442   19.4588   71.3196  H          1 SUBUNIT      0.0397
48   H         0.3497   20.3711   73.3593  H          1 SUBUNIT      0.0385
49   H        -0.5282   18.8293   73.5841  H          1 SUBUNIT      0.0385
50   H         1.0410   15.9659   70.1201  H          1 SUBUNIT      0.0405
51   H         2.2968   16.6029   71.1936  H          1 SUBUNIT      0.0405
52   H         1.8433   17.4963   69.7336  H          1 SUBUNIT      0.0405
53   H        -1.1248   24.3339   60.1812  H          1 SUBUNIT      0.1133
54   H         0.9280   25.7159   60.2991  H          1 SUBUNIT      0.1129
55   H         0.7087   27.7335   62.0831  H          1 SUBUNIT      0.1134
56   H        -2.2672   27.3988   64.3589  H          1 SUBUNIT      0.0491
57   H        -2.5290   28.6404   63.0986  H          1 SUBUNIT      0.0491
@<TRIPOS>BOND
     1    1    2 2
     2    1    3 1
     3    1   32 1
     4    3   17 1
     5    3   18 1
     6    4    6 2
     7    4   15 1
     8    5    6 1
     9    5    7 1
    10    5   16 2
    11    7    8 1
    12    8    9 1
    13    8   10 2
    14    9   11 2
    15    9   14 1
    16   11   12 1
    17   12   26 2
    18   13   14 2
    19   13   26 1
    20   15   16 1
    21   15   18 2
    22   16   17 1
    23   19   20 1
    24   19   24 1
    25   19   26 1
    26   20   21 1
    27   21   22 1
    28   22   23 1
    29   22   25 1
    30   23   24 1
    31   27   28 2
    32   27   29 1
    33   28   30 1
    34   29   31 1
    35   30   31 2
    36   31   32 1
    37    7   33 1
    38   11   34 1
    39   12   35 1
    40   13   36 1
    41   14   37 1
    42   17   38 1
    43   17   39 1
    44   18   40 1
    45   20   41 1
    46   20   42 1
    47   21   43 1
    48   21   44 1
    49   22   45 1
    50   23   46 1
    51   23   47 1
    52   24   48 1
    53   24   49 1
    54   25   50 1
    55   25   51 1
    56   25   52 1
    57   27   53 1
    58   28   54 1
    59   30   55 1
    60   32   56 1
    61   32   57 1
