@<TRIPOS>MOLECULE
CHEMBL162322
   51    54     0     0     0
SMALL
USER_CHARGES

@<TRIPOS>ATOM
      1 C1          4.0680    5.5035   -1.2241 C.ar      1 <0>        -0.0481
      2 C2          3.9946    4.1280   -1.2028 C.ar      1 <0>        -0.1471
      3 C3          3.6178    3.4686   -0.0390 C.ar      1 <0>         0.1042
      4 C4          3.3141    4.1935    1.1070 C.ar      1 <0>        -0.1244
      5 C5          3.3857    5.5692    1.0931 C.ar      1 <0>        -0.0578
      6 C6          3.7636    6.2351   -0.0745 C.ar      1 <0>        -0.0433
      7 C7          3.8416    7.7112   -0.0934 C.2       1 <0>         0.3409
      8 N1          4.1807    8.3892   -1.1461 N.2       1 <0>        -0.5293
      9 C8          4.1422    9.8255   -0.8085 C.3       1 <0>        -0.0102
     10 C9          3.3410    9.8237    0.5162 C.3       1 <0>         0.0203
     11 O1          3.5611    8.4777    0.9813 O.3       1 <0>        -0.3398
     12 O2          3.5457    2.1132   -0.0218 O.3       1 <0>        -0.2510
     13 C10         4.7036    1.4108   -0.1417 C.ar      1 <0>         0.1046
     14 C11         4.6676    0.0293   -0.2628 C.ar      1 <0>        -0.1021
     15 C12         5.8440   -0.6840   -0.3850 C.ar      1 <0>        -0.1024
     16 C13         7.0613   -0.0192   -0.3863 C.ar      1 <0>         0.0788
     17 C14         7.0975    1.3621   -0.2648 C.ar      1 <0>        -0.1615
     18 C15         5.9209    2.0762   -0.1487 C.ar      1 <0>        -0.1540
     19 O3          8.2194   -0.7217   -0.5062 O.3       1 <0>        -0.3240
     20 C16         9.4362    0.0276   -0.4999 C.3       1 <0>         0.0278
     21 C17        10.6235   -0.9267   -0.6437 C.3       1 <0>         0.0013
     22 N2         10.5735   -1.5756   -1.9606 N.4       1 <0>        -0.3912
     23 C18         9.3836   -2.4496   -2.0398 C.3       1 <0>        -0.0014
     24 C19         9.8440   -3.6699   -2.8756 C.3       1 <0>        -0.1459
     25 C20        11.3036   -3.8542   -2.3833 C.3       1 <0>        -0.1421
     26 C21        11.7780   -2.4041   -2.1517 C.3       1 <0>        -0.0135
     27 H1          4.3649    6.0152   -2.1277 H         1 <0>         0.1480
     28 H2          4.2300    3.5615   -2.0916 H         1 <0>         0.1387
     29 H3          3.0212    3.6778    2.0096 H         1 <0>         0.1438
     30 H4          3.1492    6.1320    1.9840 H         1 <0>         0.1465
     31 H5          5.1481   10.2163   -0.6546 H         1 <0>         0.0971
     32 H6          3.6195   10.3925   -1.5788 H         1 <0>         0.1074
     33 H7          3.7439   10.5537    1.2182 H         1 <0>         0.1165
     34 H8          2.2815   10.0026    0.3330 H         1 <0>         0.0877
     35 H9          3.7198   -0.4884   -0.2611 H         1 <0>         0.1475
     36 H10         5.8160   -1.7595   -0.4793 H         1 <0>         0.1420
     37 H11         8.0454    1.8796   -0.2654 H         1 <0>         0.1312
     38 H12         5.9488    3.1521   -0.0589 H         1 <0>         0.1382
     39 H13         9.4335    0.7320   -1.3317 H         1 <0>         0.0850
     40 H14         9.5213    0.5745    0.4391 H         1 <0>         0.1082
     41 H15        11.5536   -0.3662   -0.5500 H         1 <0>         0.1486
     42 H16        10.5763   -1.6856    0.1373 H         1 <0>         0.1405
     43 H17         9.0783   -2.7662   -1.0425 H         1 <0>         0.1379
     44 H18         8.5657   -1.9326   -2.5417 H         1 <0>         0.1345
     45 H19         9.2411   -4.5490   -2.6478 H         1 <0>         0.1163
     46 H20         9.8169   -3.4454   -3.9419 H         1 <0>         0.0967
     47 H21        11.3278   -4.4210   -1.4526 H         1 <0>         0.0985
     48 H22        11.9096   -4.3405   -3.1478 H         1 <0>         0.1122
     49 H23        12.3356   -2.0532   -3.0200 H         1 <0>         0.1323
     50 H24        12.4055   -2.3570   -1.2616 H         1 <0>         0.1316
     51 H25        10.5257   -0.8740   -2.6842 H         1 <0>         0.4245
@<TRIPOS>BOND
     1    1    6 ar
     2    1    2 ar
     3    1   27 1
     4    2    3 ar
     5    2   28 1
     6    3    4 ar
     7    3   12 1
     8    4    5 ar
     9    4   29 1
    10    5    6 ar
    11    5   30 1
    12    6    7 1
    13    7   11 1
    14    7    8 2
    15    8    9 1
    16    9   10 1
    17    9   31 1
    18    9   32 1
    19   10   11 1
    20   10   33 1
    21   10   34 1
    22   12   13 1
    23   13   18 ar
    24   13   14 ar
    25   14   15 ar
    26   14   35 1
    27   15   16 ar
    28   15   36 1
    29   16   17 ar
    30   16   19 1
    31   17   18 ar
    32   17   37 1
    33   18   38 1
    34   19   20 1
    35   20   21 1
    36   20   39 1
    37   20   40 1
    38   21   22 1
    39   21   41 1
    40   21   42 1
    41   22   26 1
    42   22   23 1
    43   22   51 1
    44   23   24 1
    45   23   43 1
    46   23   44 1
    47   24   25 1
    48   24   45 1
    49   24   46 1
    50   25   26 1
    51   25   47 1
    52   25   48 1
    53   26   49 1
    54   26   50 1
@<TRIPOS>MOLECULE
CHEMBL162432
   53    56     0     0     0
SMALL
USER_CHARGES

@<TRIPOS>ATOM
      1 C1         14.7714    1.1084   -0.2516 C.ar      1 <0>        -0.1117
      2 C2         14.0265    1.1033    0.9139 C.ar      1 <0>        -0.1161
      3 C3         12.7965    0.4783    0.9471 C.ar      1 <0>        -0.1073
      4 C4         12.3050   -0.1480   -0.1967 C.ar      1 <0>        -0.0567
      5 C5         13.0596   -0.1394   -1.3683 C.ar      1 <0>        -0.1085
      6 C6         14.2885    0.4883   -1.3899 C.ar      1 <0>        -0.1171
      7 C7         10.9837   -0.8220   -0.1671 C.ar      1 <0>        -0.0351
      8 C8         10.2277   -0.8253    1.0039 C.ar      1 <0>        -0.0944
      9 C9          8.9997   -1.4521    1.0284 C.ar      1 <0>        -0.1132
     10 C10         8.5160   -2.0795   -0.1120 C.ar      1 <0>         0.0770
     11 C11         9.2672   -2.0782   -1.2799 C.ar      1 <0>        -0.1349
     12 C12        10.4934   -1.4480   -1.3119 C.ar      1 <0>        -0.0968
     13 O1          7.3059   -2.6962   -0.0850 O.3       1 <0>        -0.2510
     14 C13         7.2769   -4.0505   -0.2020 C.ar      1 <0>         0.1058
     15 C14         6.0622   -4.7113   -0.3131 C.ar      1 <0>        -0.1045
     16 C15         6.0328   -6.0871   -0.4318 C.ar      1 <0>        -0.1022
     17 C16         7.2178   -6.8080   -0.4395 C.ar      1 <0>         0.0767
     18 C17         8.4324   -6.1474   -0.3280 C.ar      1 <0>        -0.1616
     19 C18         8.4622   -4.7711   -0.2159 C.ar      1 <0>        -0.1548
     20 O2          7.1888   -8.1625   -0.5560 O.3       1 <0>        -0.3242
     21 C19         8.4466   -8.8407   -0.5567 C.3       1 <0>         0.0280
     22 C20         8.2140  -10.3465   -0.6953 C.3       1 <0>         0.0015
     23 N1          7.6181  -10.6313   -2.0075 N.4       1 <0>        -0.3912
     24 C21         6.2653  -10.0391   -2.0787 C.3       1 <0>        -0.0013
     25 C22         5.4338  -11.0505   -2.9063 C.3       1 <0>        -0.1458
     26 C23         6.0084  -12.4051   -2.4148 C.3       1 <0>        -0.1421
     27 C24         7.5028  -12.0893   -2.1942 C.3       1 <0>        -0.0135
     28 H1         15.7316    1.6023   -0.2742 H         1 <0>         0.1263
     29 H2         14.4083    1.5890    1.7998 H         1 <0>         0.1277
     30 H3         12.2160    0.4742    1.8578 H         1 <0>         0.1264
     31 H4         12.6836   -0.6235   -2.2575 H         1 <0>         0.1248
     32 H5         14.8743    0.4954   -2.2972 H         1 <0>         0.1268
     33 H6         10.6035   -0.3378    1.8913 H         1 <0>         0.1379
     34 H7          8.4136   -1.4553    1.9356 H         1 <0>         0.1373
     35 H8          8.8890   -2.5676   -2.1653 H         1 <0>         0.1314
     36 H9         11.0752   -1.4434   -2.2217 H         1 <0>         0.1347
     37 H10         5.1395   -4.1501   -0.3064 H         1 <0>         0.1466
     38 H11         5.0872   -6.6015   -0.5183 H         1 <0>         0.1415
     39 H12         9.3549   -6.7089   -0.3336 H         1 <0>         0.1304
     40 H13         9.4082   -4.2563   -0.1342 H         1 <0>         0.1376
     41 H14         9.0492   -8.4876   -1.3936 H         1 <0>         0.0845
     42 H15         8.9691   -8.6382    0.3782 H         1 <0>         0.1079
     43 H16         9.1655  -10.8708   -0.6068 H         1 <0>         0.1485
     44 H17         7.5389  -10.6837    0.0912 H         1 <0>         0.1405
     45 H18         5.8453   -9.9309   -1.0787 H         1 <0>         0.1379
     46 H19         6.2999   -9.0735   -2.5832 H         1 <0>         0.1344
     47 H20         4.3726  -10.9683   -2.6714 H         1 <0>         0.1163
     48 H21         5.6072  -10.9173   -3.9742 H         1 <0>         0.0967
     49 H22         5.5364  -12.7076   -1.4800 H         1 <0>         0.0986
     50 H23         5.8857  -13.1751   -3.1765 H         1 <0>         0.1122
     51 H24         8.0797  -12.3983   -3.0658 H         1 <0>         0.1322
     52 H25         7.8638  -12.6067   -1.3053 H         1 <0>         0.1316
     53 H26         8.1966  -10.2404   -2.7359 H         1 <0>         0.4243
@<TRIPOS>BOND
     1    1    6 ar
     2    1    2 ar
     3    1   28 1
     4    2    3 ar
     5    2   29 1
     6    3    4 ar
     7    3   30 1
     8    4    5 ar
     9    4    7 1
    10    5    6 ar
    11    5   31 1
    12    6   32 1
    13    7   12 ar
    14    7    8 ar
    15    8    9 ar
    16    8   33 1
    17    9   10 ar
    18    9   34 1
    19   10   11 ar
    20   10   13 1
    21   11   12 ar
    22   11   35 1
    23   12   36 1
    24   13   14 1
    25   14   19 ar
    26   14   15 ar
    27   15   16 ar
    28   15   37 1
    29   16   17 ar
    30   16   38 1
    31   17   18 ar
    32   17   20 1
    33   18   19 ar
    34   18   39 1
    35   19   40 1
    36   20   21 1
    37   21   22 1
    38   21   41 1
    39   21   42 1
    40   22   23 1
    41   22   43 1
    42   22   44 1
    43   23   27 1
    44   23   24 1
    45   23   53 1
    46   24   25 1
    47   24   45 1
    48   24   46 1
    49   25   26 1
    50   25   47 1
    51   25   48 1
    52   26   27 1
    53   26   49 1
    54   26   50 1
    55   27   51 1
    56   27   52 1
@<TRIPOS>MOLECULE
CHEMBL323686
   63    65     0     0     0
SMALL
USER_CHARGES

@<TRIPOS>ATOM
      1 C1         -0.0178    1.4648    0.0101 C.3       1 <0>        -0.0573
      2 N1          0.0021   -0.0041    0.0020 N.4       1 <0>        -0.3879
      3 C2         -1.3761   -0.5125    0.0124 C.3       1 <0>        -0.0043
      4 C3         -2.0780   -0.1101   -1.2861 C.3       1 <0>        -0.1496
      5 C4         -3.5134   -0.6397   -1.2753 C.3       1 <0>         0.0630
      6 O1         -4.1690   -0.2638   -2.4881 O.3       1 <0>        -0.3143
      7 C5         -5.4605   -0.6587   -2.6393 C.ar      1 <0>         0.1207
      8 C6         -6.0858   -1.3879   -1.6384 C.ar      1 <0>        -0.2034
      9 C7         -7.3989   -1.7877   -1.7942 C.ar      1 <0>        -0.0733
     10 C8         -8.0898   -1.4621   -2.9468 C.ar      1 <0>        -0.1055
     11 C9         -7.4687   -0.7358   -3.9461 C.ar      1 <0>        -0.0730
     12 C10        -6.1577   -0.3284   -3.7923 C.ar      1 <0>        -0.1442
     13 C11        -9.5220   -1.9000   -3.1144 C.3       1 <0>        -0.0408
     14 C12       -10.4395   -0.8380   -2.5653 C.ar      1 <0>        -0.0785
     15 C13       -10.8209   -0.8735   -1.2371 C.ar      1 <0>        -0.1157
     16 C14       -11.6625    0.1006   -0.7333 C.ar      1 <0>        -0.1177
     17 C15       -12.1223    1.1104   -1.5577 C.ar      1 <0>        -0.1231
     18 C16       -11.7402    1.1464   -2.8857 C.ar      1 <0>        -0.1173
     19 C17       -10.8952    0.1747   -3.3884 C.ar      1 <0>        -0.1152
     20 C18         0.7126   -0.4907    1.1921 C.3       1 <0>         0.0073
     21 C19         2.1805   -0.0656    1.1191 C.3       1 <0>        -0.1087
     22 C20         2.9094   -0.5648    2.3400 C.2       1 <0>         0.4844
     23 O2          4.2249   -0.3071    2.4927 O.3       1 <0>        -0.6999
     24 N2          2.2753   -1.2388    3.2394 N.2       1 <0>        -1.0757
     25 S1          3.0762   -1.7873    4.5810 S.o2      1 <0>         2.6585
     26 O3          4.0155   -2.7522    4.1270 O.2       1 <0>        -0.9973
     27 O4          3.4625   -0.6378    5.3217 O.2       1 <0>        -0.9975
     28 C21         1.9031   -2.6531    5.5704 C.ar      1 <0>        -0.6366
     29 C22         1.1731   -1.9753    6.5288 C.ar      1 <0>        -0.0253
     30 C23         0.2528   -2.6545    7.3050 C.ar      1 <0>        -0.1450
     31 C24         0.0621   -4.0114    7.1225 C.ar      1 <0>        -0.0778
     32 C25         0.7914   -4.6891    6.1634 C.ar      1 <0>        -0.1449
     33 C26         1.7087   -4.0090    5.3843 C.ar      1 <0>        -0.0253
     34 H1          1.0047    1.8421    0.0024 H         1 <0>         0.1279
     35 H2         -0.5450    1.8259   -0.8730 H         1 <0>         0.1194
     36 H3         -0.5280    1.8163    0.9069 H         1 <0>         0.1227
     37 H4         -1.3618   -1.5992    0.0960 H         1 <0>         0.1340
     38 H5         -1.9129   -0.0898    0.8617 H         1 <0>         0.1324
     39 H6         -2.0923    0.9766   -1.3697 H         1 <0>         0.0980
     40 H7         -1.5412   -0.5328   -2.1354 H         1 <0>         0.0976
     41 H8         -3.4991   -1.7264   -1.1917 H         1 <0>         0.0725
     42 H9         -4.0502   -0.2170   -0.4260 H         1 <0>         0.0717
     43 H10        -5.5464   -1.6431   -0.7382 H         1 <0>         0.1268
     44 H11        -7.8862   -2.3554   -1.0153 H         1 <0>         0.1259
     45 H12        -8.0103   -0.4830   -4.8456 H         1 <0>         0.1307
     46 H13        -5.6743    0.2427   -4.5712 H         1 <0>         0.1317
     47 H14        -9.7341   -2.0515   -4.1728 H         1 <0>         0.0838
     48 H15        -9.6822   -2.8332   -2.5745 H         1 <0>         0.0830
     49 H16       -10.4616   -1.6625   -0.5930 H         1 <0>         0.1198
     50 H17       -11.9610    0.0724    0.3042 H         1 <0>         0.1219
     51 H18       -12.7804    1.8710   -1.1643 H         1 <0>         0.1216
     52 H19       -12.0998    1.9352   -3.5299 H         1 <0>         0.1223
     53 H20       -10.5937    0.2050   -4.4250 H         1 <0>         0.1207
     54 H21         0.2557   -0.0671    2.0865 H         1 <0>         0.1395
     55 H22         0.6508   -1.5782    1.2328 H         1 <0>         0.1402
     56 H23         2.6374   -0.4891    0.2247 H         1 <0>         0.0997
     57 H24         2.2422    1.0219    1.0785 H         1 <0>         0.0998
     58 H25         1.3221   -0.9152    6.6714 H         1 <0>         0.1363
     59 H26        -0.3171   -2.1251    8.0543 H         1 <0>         0.1282
     60 H27        -0.6565   -4.5422    7.7294 H         1 <0>         0.1262
     61 H28         0.6427   -5.7492    6.0210 H         1 <0>         0.1283
     62 H29         2.2758   -4.5377    4.6324 H         1 <0>         0.1365
     63 H30         0.4744   -0.3295   -0.8281 H         1 <0>         0.4220
@<TRIPOS>BOND
     1    1    2 1
     2    1   34 1
     3    1   35 1
     4    1   36 1
     5    2    3 1
     6    2   20 1
     7    2   63 1
     8    3    4 1
     9    3   37 1
    10    3   38 1
    11    4    5 1
    12    4   39 1
    13    4   40 1
    14    5    6 1
    15    5   41 1
    16    5   42 1
    17    6    7 1
    18    7   12 ar
    19    7    8 ar
    20    8    9 ar
    21    8   43 1
    22    9   10 ar
    23    9   44 1
    24   10   11 ar
    25   10   13 1
    26   11   12 ar
    27   11   45 1
    28   12   46 1
    29   13   14 1
    30   13   47 1
    31   13   48 1
    32   14   19 ar
    33   14   15 ar
    34   15   16 ar
    35   15   49 1
    36   16   17 ar
    37   16   50 1
    38   17   18 ar
    39   17   51 1
    40   18   19 ar
    41   18   52 1
    42   19   53 1
    43   20   21 1
    44   20   54 1
    45   20   55 1
    46   21   22 1
    47   21   56 1
    48   21   57 1
    49   22   23 1
    50   22   24 2
    51   24   25 1
    52   25   26 2
    53   25   27 2
    54   25   28 1
    55   28   33 ar
    56   28   29 ar
    57   29   30 ar
    58   29   58 1
    59   30   31 ar
    60   30   59 1
    61   31   32 ar
    62   31   60 1
    63   32   33 ar
    64   32   61 1
    65   33   62 1
@<TRIPOS>MOLECULE
CHEMBL351422
   48    51     0     0     0
SMALL
USER_CHARGES

@<TRIPOS>ATOM
      1 C1         -0.0167    1.3781    0.0096 C.ar      1 <0>        -0.1202
      2 C2          1.1709    2.0855    0.0021 C.ar      1 <0>        -0.1166
      3 C3          2.3773    1.4107   -0.0130 C.ar      1 <0>        -0.1149
      4 C4          2.3960    0.0285   -0.0201 C.ar      1 <0>        -0.0817
      5 C5          1.2084   -0.6789   -0.0117 C.ar      1 <0>        -0.1152
      6 C6          0.0021   -0.0041    0.0020 C.ar      1 <0>        -0.1170
      7 C7          3.7112   -0.7071   -0.0376 C.3       1 <0>        -0.0483
      8 C8          4.1644   -0.9594    1.3773 C.ar      1 <0>        -0.0607
      9 C9          4.9521   -0.0277    2.0273 C.ar      1 <0>        -0.1083
     10 C10         5.3679   -0.2592    3.3252 C.ar      1 <0>        -0.1062
     11 C11         4.9956   -1.4221    3.9732 C.ar      1 <0>        -0.0953
     12 C12         4.2072   -2.3534    3.3235 C.ar      1 <0>        -0.1124
     13 C13         3.7879   -2.1200    2.0272 C.ar      1 <0>        -0.1086
     14 C14         5.4497   -1.6748    5.3878 C.3       1 <0>        -0.0751
     15 C15         5.7975   -3.1461    5.6695 C.3       1 <0>        -0.1351
     16 C16         5.1155   -2.9638    7.0357 C.3       1 <0>        -0.0142
     17 C17         4.2919   -1.8391    6.3864 C.3       1 <0>        -0.1305
     18 N1          6.0249   -2.4941    8.0894 N.4       1 <0>        -0.3792
     19 C18         5.3110   -2.4281    9.3902 C.3       1 <0>        -0.0031
     20 C19         6.4597   -2.4853   10.4284 C.3       1 <0>        -0.1460
     21 C20         7.4572   -3.4766    9.7860 C.3       1 <0>        -0.1446
     22 C21         7.1257   -3.4628    8.2822 C.3       1 <0>        -0.0078
     23 H1         -0.9591    1.9053    0.0259 H         1 <0>         0.1234
     24 H2          1.1563    3.1654    0.0076 H         1 <0>         0.1236
     25 H3          3.3051    1.9634   -0.0196 H         1 <0>         0.1203
     26 H4          1.2231   -1.7588   -0.0176 H         1 <0>         0.1200
     27 H5         -0.9258   -0.5567    0.0082 H         1 <0>         0.1233
     28 H6          3.5884   -1.6586   -0.5549 H         1 <0>         0.0858
     29 H7          4.4573   -0.1052   -0.5563 H         1 <0>         0.0859
     30 H8          5.2429    0.8808    1.5210 H         1 <0>         0.1258
     31 H9          5.9838    0.4684    3.8327 H         1 <0>         0.1217
     32 H10         3.9167   -3.2621    3.8297 H         1 <0>         0.1206
     33 H11         3.1689   -2.8458    1.5209 H         1 <0>         0.1256
     34 H12         6.2152   -0.9728    5.7184 H         1 <0>         0.1023
     35 H13         5.2828   -3.8495    5.0150 H         1 <0>         0.1262
     36 H14         6.8686   -3.3362    5.7381 H         1 <0>         0.0928
     37 H15         4.5172   -3.8216    7.3430 H         1 <0>         0.1491
     38 H16         4.1475   -0.9741    7.0337 H         1 <0>         0.0916
     39 H17         3.3656   -2.1852    5.9278 H         1 <0>         0.1255
     40 H18         4.7586   -1.4927    9.4789 H         1 <0>         0.1343
     41 H19         4.6442   -3.2825    9.5069 H         1 <0>         0.1340
     42 H20         6.9171   -1.5037   10.5520 H         1 <0>         0.0977
     43 H21         6.0980   -2.8666   11.3833 H         1 <0>         0.1172
     44 H22         8.4816   -3.1426    9.9507 H         1 <0>         0.1051
     45 H23         7.3139   -4.4764   10.1958 H         1 <0>         0.1041
     46 H24         6.8071   -4.4552    7.9631 H         1 <0>         0.1311
     47 H25         8.0003   -3.1495    7.7121 H         1 <0>         0.1304
     48 H26         6.3973   -1.5875    7.8495 H         1 <0>         0.4236
@<TRIPOS>BOND
     1    1    6 ar
     2    1    2 ar
     3    1   23 1
     4    2    3 ar
     5    2   24 1
     6    3    4 ar
     7    3   25 1
     8    4    5 ar
     9    4    7 1
    10    5    6 ar
    11    5   26 1
    12    6   27 1
    13    7    8 1
    14    7   28 1
    15    7   29 1
    16    8   13 ar
    17    8    9 ar
    18    9   10 ar
    19    9   30 1
    20   10   11 ar
    21   10   31 1
    22   11   12 ar
    23   11   14 1
    24   12   13 ar
    25   12   32 1
    26   13   33 1
    27   14   17 1
    28   14   15 1
    29   14   34 1
    30   15   16 1
    31   15   35 1
    32   15   36 1
    33   16   17 1
    34   16   18 1
    35   16   37 1
    36   17   38 1
    37   17   39 1
    38   18   22 1
    39   18   19 1
    40   18   48 1
    41   19   20 1
    42   19   40 1
    43   19   41 1
    44   20   21 1
    45   20   42 1
    46   20   43 1
    47   21   22 1
    48   21   44 1
    49   21   45 1
    50   22   46 1
    51   22   47 1
@<TRIPOS>MOLECULE
CHEMBL159808
   51    53     0     0     0
SMALL
USER_CHARGES

@<TRIPOS>ATOM
      1 C1         -0.0167    1.3784    0.0096 C.ar      1 <0>        -0.0749
      2 C2          1.1695    2.0865    0.0021 C.ar      1 <0>        -0.1395
      3 C3          2.3802    1.4093   -0.0131 C.ar      1 <0>         0.1031
      4 C4          2.3963    0.0221   -0.0206 C.ar      1 <0>        -0.1985
      5 C5          1.2074   -0.6814   -0.0130 C.ar      1 <0>        -0.0775
      6 C6          0.0021   -0.0041    0.0020 C.ar      1 <0>        -0.0927
      7 C7         -1.2934   -0.7740    0.0107 C.3       1 <0>        -0.0810
      8 C8         -1.7461   -1.0268   -1.4288 C.3       1 <0>        -0.0801
      9 C9         -2.0727    0.3075   -2.1025 C.3       1 <0>        -0.1158
     10 C10        -2.5254    0.0547   -3.5419 C.3       1 <0>        -0.1203
     11 C11        -3.7720   -0.8324   -3.5362 C.3       1 <0>        -0.1221
     12 C12        -3.4453   -2.1667   -2.8625 C.3       1 <0>        -0.1209
     13 C13        -2.9926   -1.9139   -1.4230 C.3       1 <0>        -0.1158
     14 O1          3.5484    2.1036   -0.0209 O.3       1 <0>        -0.3262
     15 C14         4.7565    1.3405   -0.0365 C.3       1 <0>         0.0285
     16 C15         5.9580    2.2878   -0.0434 C.3       1 <0>         0.0013
     17 N1          5.9923    3.0443    1.2153 N.4       1 <0>        -0.3911
     18 C16         4.8165    3.9374    1.2913 C.3       1 <0>        -0.0010
     19 C17         5.3362    5.2166    1.9935 C.3       1 <0>        -0.1458
     20 C18         6.7651    5.3403    1.4022 C.3       1 <0>        -0.1420
     21 C19         7.2129    3.8699    1.2649 C.3       1 <0>        -0.0135
     22 H1         -0.9594    1.9052    0.0259 H         1 <0>         0.1342
     23 H2          1.1543    3.1664    0.0076 H         1 <0>         0.1309
     24 H3          3.3375   -0.5074   -0.0328 H         1 <0>         0.1256
     25 H4          1.2194   -1.7613   -0.0189 H         1 <0>         0.1289
     26 H5         -1.1460   -1.7274    0.5180 H         1 <0>         0.0753
     27 H6         -2.0553   -0.1973    0.5352 H         1 <0>         0.0761
     28 H7         -0.9477   -1.5255   -1.9784 H         1 <0>         0.0699
     29 H8         -2.8710    0.8062   -1.5528 H         1 <0>         0.0622
     30 H9         -1.1846    0.9395   -2.1066 H         1 <0>         0.0614
     31 H10        -2.7581    1.0052   -4.0219 H         1 <0>         0.0613
     32 H11        -1.7271   -0.4440   -4.0916 H         1 <0>         0.0595
     33 H12        -4.5703   -0.3337   -2.9865 H         1 <0>         0.0622
     34 H13        -4.0945   -1.0125   -4.5617 H         1 <0>         0.0620
     35 H14        -4.3334   -2.7987   -2.8584 H         1 <0>         0.0638
     36 H15        -2.6470   -2.6654   -3.4121 H         1 <0>         0.0608
     37 H16        -2.7599   -2.8645   -0.9431 H         1 <0>         0.0626
     38 H17        -3.7909   -1.4152   -0.8734 H         1 <0>         0.0640
     39 H18         4.7979    0.7076    0.8500 H         1 <0>         0.0848
     40 H19         4.7806    0.7165   -0.9299 H         1 <0>         0.1080
     41 H20         6.8762    1.7093   -0.1448 H         1 <0>         0.1486
     42 H21         5.8702    2.9798   -0.8810 H         1 <0>         0.1401
     43 H22         4.4545    4.1741    0.2908 H         1 <0>         0.1374
     44 H23         4.0261    3.4746    1.8822 H         1 <0>         0.1340
     45 H24         4.7279    6.0816    1.7291 H         1 <0>         0.1161
     46 H25         5.3713    5.0818    3.0746 H         1 <0>         0.0968
     47 H26         6.7380    5.8275    0.4275 H         1 <0>         0.0985
     48 H27         7.4198    5.8803    2.0861 H         1 <0>         0.1124
     49 H28         7.8187    3.5849    2.1251 H         1 <0>         0.1324
     50 H29         7.7854    3.7409    0.3463 H         1 <0>         0.1316
     51 H30         5.9824    2.4058    1.9965 H         1 <0>         0.4244
@<TRIPOS>BOND
     1    1    6 ar
     2    1    2 ar
     3    1   22 1
     4    2    3 ar
     5    2   23 1
     6    3    4 ar
     7    3   14 1
     8    4    5 ar
     9    4   24 1
    10    5    6 ar
    11    5   25 1
    12    6    7 1
    13    7    8 1
    14    7   26 1
    15    7   27 1
    16    8   13 1
    17    8    9 1
    18    8   28 1
    19    9   10 1
    20    9   29 1
    21    9   30 1
    22   10   11 1
    23   10   31 1
    24   10   32 1
    25   11   12 1
    26   11   33 1
    27   11   34 1
    28   12   13 1
    29   12   35 1
    30   12   36 1
    31   13   37 1
    32   13   38 1
    33   14   15 1
    34   15   16 1
    35   15   39 1
    36   15   40 1
    37   16   17 1
    38   16   41 1
    39   16   42 1
    40   17   21 1
    41   17   18 1
    42   17   51 1
    43   18   19 1
    44   18   43 1
    45   18   44 1
    46   19   20 1
    47   19   45 1
    48   19   46 1
    49   20   21 1
    50   20   47 1
    51   20   48 1
    52   21   49 1
    53   21   50 1
@<TRIPOS>MOLECULE
CHEMBL517525
   69    72     0     0     0
SMALL
USER_CHARGES

@<TRIPOS>ATOM
      1 C1          1.0792    0.8127    0.4242 C.3       1 <0>         0.0028
      2 N1          0.4185   -0.4812    0.2070 N.3       1 <0>        -0.5116
      3 C2          0.5855   -1.3598    1.3724 C.3       1 <0>         0.0340
      4 C3         -0.1491   -0.7755    2.5513 C.2       1 <0>         0.5133
      5 O1         -0.7525    0.2700    2.4325 O.2       1 <0>        -0.4982
      6 N2         -0.1357   -1.4147    3.7378 N.am      1 <0>        -0.6682
      7 C4         -0.6715   -0.7942    4.8739 C.ar      1 <0>         0.1091
      8 C5         -0.2051   -1.1351    6.1365 C.ar      1 <0>        -0.1093
      9 C6         -0.7336   -0.5232    7.2558 C.ar      1 <0>        -0.1714
     10 C7         -1.7306    0.4321    7.1191 C.ar      1 <0>         0.1094
     11 C8         -2.1970    0.7731    5.8576 C.ar      1 <0>        -0.1252
     12 C9         -1.6652    0.1660    4.7372 C.ar      1 <0>        -0.0962
     13 O2         -2.2509    1.0338    8.2215 O.3       1 <0>        -0.2587
     14 C10        -1.6445    0.8098    9.4167 C.ar      1 <0>         0.0820
     15 C11        -0.4601    1.4621    9.7282 C.ar      1 <0>        -0.1325
     16 C12         0.1544    1.2325   10.9439 C.ar      1 <0>        -0.1048
     17 C13        -0.4096    0.3532   11.8498 C.ar      1 <0>        -0.1177
     18 C14        -1.5897   -0.2982   11.5418 C.ar      1 <0>        -0.1049
     19 C15        -2.2115   -0.0675   10.3301 C.ar      1 <0>        -0.1233
     20 C16         0.9153   -1.1275   -1.0151 C.3       1 <0>         0.0780
     21 C17         2.4390   -1.3714   -0.8780 C.3       1 <0>        -0.1752
     22 C18         2.8686   -2.3634   -1.9256 C.3       1 <0>        -0.1328
     23 C19         3.3312   -1.7077   -3.2391 C.3       1 <0>        -0.0092
     24 N3          2.4691   -0.5890   -3.6770 N.4       1 <0>        -0.3792
     25 C20         1.0686   -0.8864   -3.4984 C.3       1 <0>        -0.0100
     26 C21         0.6233   -0.2743   -2.1603 C.3       1 <0>        -0.1448
     27 C22         2.7229   -0.3180   -5.0983 C.3       1 <0>         0.0498
     28 C23         4.1380    0.1702   -5.2718 C.ar      1 <0>        -0.1829
     29 C24         4.4133    1.5243   -5.1961 C.ar      1 <0>        -0.1096
     30 C25         5.7060    1.9784   -5.3544 C.ar      1 <0>        -0.0846
     31 C26         6.7387    1.0676   -5.5911 C.ar      1 <0>        -0.0898
     32 C27         6.4532   -0.2981   -5.6658 C.ar      1 <0>        -0.0851
     33 C28         5.1566   -0.7382   -5.5004 C.ar      1 <0>        -0.1114
     34 C29         8.1240    1.5457   -5.7619 C.2       1 <0>         0.5089
     35 O3          8.3705    2.7417   -5.6964 O.co2     1 <0>        -0.6719
     36 O4          9.0257    0.7459   -5.9690 O.co2     1 <0>        -0.6727
     37 H1          2.1444    0.6532    0.5917 H         1 <0>         0.0303
     38 H2          0.9400    1.4437   -0.4537 H         1 <0>         0.0732
     39 H3          0.6435    1.3014    1.2956 H         1 <0>         0.0956
     40 H4          0.1811   -2.3461    1.1447 H         1 <0>         0.1103
     41 H5          1.6452   -1.4480    1.6119 H         1 <0>         0.0743
     42 H6          0.2450   -2.3043    3.8052 H         1 <0>         0.4111
     43 H7          0.5706   -1.8789    6.2431 H         1 <0>         0.1291
     44 H8         -0.3712   -0.7886    8.2380 H         1 <0>         0.1324
     45 H9         -2.9730    1.5167    5.7517 H         1 <0>         0.1371
     46 H10        -2.0251    0.4348    3.7551 H         1 <0>         0.1638
     47 H11        -0.0188    2.1485    9.0207 H         1 <0>         0.1299
     48 H12         1.0762    1.7400   11.1869 H         1 <0>         0.1311
     49 H13         0.0728    0.1745   12.7994 H         1 <0>         0.1295
     50 H14        -2.0279   -0.9848   12.2510 H         1 <0>         0.1322
     51 H15        -3.1356   -0.5731   10.0919 H         1 <0>         0.1323
     52 H16         0.4106   -2.0849   -1.1440 H         1 <0>         0.0977
     53 H17         2.9737   -0.4326   -1.0230 H         1 <0>         0.0737
     54 H18         2.6576   -1.7690    0.1130 H         1 <0>         0.0904
     55 H19         3.6883   -2.9603   -1.5258 H         1 <0>         0.1055
     56 H20         2.0311   -3.0265   -2.1426 H         1 <0>         0.0851
     57 H21         4.3461   -1.3337   -3.1037 H         1 <0>         0.1298
     58 H22         3.3435   -2.4659   -4.0221 H         1 <0>         0.1266
     59 H23         0.4920   -0.4498   -4.3139 H         1 <0>         0.1356
     60 H24         0.9205   -1.9661   -3.4777 H         1 <0>         0.1311
     61 H25        -0.4510   -0.0938   -2.1979 H         1 <0>         0.1189
     62 H26         1.1319    0.6802   -2.0250 H         1 <0>         0.0866
     63 H27         2.5811   -1.2329   -5.6736 H         1 <0>         0.1305
     64 H28         2.0294    0.4448   -5.4522 H         1 <0>         0.1326
     65 H29         3.6141    2.2271   -5.0131 H         1 <0>         0.1218
     66 H30         5.9194    3.0355   -5.2958 H         1 <0>         0.1383
     67 H31         7.2466   -1.0078   -5.8485 H         1 <0>         0.1380
     68 H32         4.9351   -1.7939   -5.5535 H         1 <0>         0.1204
     69 H33         2.7011    0.2336   -3.1408 H         1 <0>         0.4192
@<TRIPOS>BOND
     1    1    2 1
     2    1   37 1
     3    1   38 1
     4    1   39 1
     5    2    3 1
     6    2   20 1
     7    3    4 1
     8    3   40 1
     9    3   41 1
    10    4    5 2
    11    4    6 am
    12    6    7 1
    13    6   42 1
    14    7   12 ar
    15    7    8 ar
    16    8    9 ar
    17    8   43 1
    18    9   10 ar
    19    9   44 1
    20   10   11 ar
    21   10   13 1
    22   11   12 ar
    23   11   45 1
    24   12   46 1
    25   13   14 1
    26   14   19 ar
    27   14   15 ar
    28   15   16 ar
    29   15   47 1
    30   16   17 ar
    31   16   48 1
    32   17   18 ar
    33   17   49 1
    34   18   19 ar
    35   18   50 1
    36   19   51 1
    37   20   26 1
    38   20   21 1
    39   20   52 1
    40   21   22 1
    41   21   53 1
    42   21   54 1
    43   22   23 1
    44   22   55 1
    45   22   56 1
    46   23   24 1
    47   23   57 1
    48   23   58 1
    49   24   25 1
    50   24   27 1
    51   24   69 1
    52   25   26 1
    53   25   59 1
    54   25   60 1
    55   26   61 1
    56   26   62 1
    57   27   28 1
    58   27   63 1
    59   27   64 1
    60   28   33 ar
    61   28   29 ar
    62   29   30 ar
    63   29   65 1
    64   30   31 ar
    65   30   66 1
    66   31   32 ar
    67   31   34 1
    68   32   33 ar
    69   32   67 1
    70   33   68 1
    71   34   35 2
    72   34   36 1
@<TRIPOS>MOLECULE
CHEMBL517525__1
   69    72     0     0     0
SMALL
USER_CHARGES

@<TRIPOS>ATOM
      1 C1         -1.7816    0.8421   -0.7468 C.3       1 <0>         0.0141
      2 N1         -0.4111    0.4893   -0.3530 N.3       1 <0>        -0.5070
      3 C2          0.3548    1.6866    0.0183 C.3       1 <0>         0.0306
      4 C3         -0.0086    2.1004    1.4211 C.2       1 <0>         0.5119
      5 O1         -0.8252    1.4608    2.0497 O.2       1 <0>        -0.4940
      6 N2          0.5739    3.1812    1.9771 N.am      1 <0>        -0.6700
      7 C4          0.1163    3.6677    3.2086 C.ar      1 <0>         0.1097
      8 C5          0.2758    5.0095    3.5279 C.ar      1 <0>        -0.1098
      9 C6         -0.1752    5.4885    4.7418 C.ar      1 <0>        -0.1723
     10 C7         -0.7878    4.6291    5.6426 C.ar      1 <0>         0.1093
     11 C8         -0.9475    3.2881    5.3241 C.ar      1 <0>        -0.1250
     12 C9         -0.5019    2.8093    4.1081 C.ar      1 <0>        -0.0957
     13 O2         -1.2313    5.1011    6.8379 O.3       1 <0>        -0.2586
     14 C10        -1.1807    6.4418    7.0528 C.ar      1 <0>         0.0822
     15 C11        -2.1399    7.2725    6.4912 C.ar      1 <0>        -0.1324
     16 C12        -2.0861    8.6351    6.7112 C.ar      1 <0>        -0.1056
     17 C13        -1.0773    9.1717    7.4899 C.ar      1 <0>        -0.1177
     18 C14        -0.1202    8.3462    8.0508 C.ar      1 <0>        -0.1047
     19 C15        -0.1730    6.9822    7.8390 C.ar      1 <0>        -0.1229
     20 C16         0.2669   -0.2595   -1.4196 C.3       1 <0>         0.0719
     21 C17        -0.3809   -1.6135   -1.5466 C.3       1 <0>        -0.1260
     22 C18         0.6842   -2.6488   -1.9818 C.3       1 <0>        -0.1491
     23 C19         1.0137   -2.5011   -3.3964 C.3       1 <0>        -0.0181
     24 N3          1.6001   -1.1926   -3.7349 N.4       1 <0>        -0.3760
     25 C20         0.5113   -0.2724   -3.9712 C.3       1 <0>        -0.0107
     26 C21         0.2090    0.5680   -2.7186 C.3       1 <0>        -0.1880
     27 C22         2.4220   -1.3135   -4.9465 C.3       1 <0>         0.0532
     28 C23         3.5986   -2.2129   -4.6676 C.ar      1 <0>        -0.1811
     29 C24         4.7805   -1.6729   -4.1915 C.ar      1 <0>        -0.1093
     30 C25         5.8615   -2.4899   -3.9345 C.ar      1 <0>        -0.0834
     31 C26         5.7612   -3.8658   -4.1555 C.ar      1 <0>        -0.0890
     32 C27         4.5646   -4.4040   -4.6359 C.ar      1 <0>        -0.0828
     33 C28         3.4901   -3.5755   -4.8835 C.ar      1 <0>        -0.1146
     34 C29         6.9134   -4.7462   -3.8834 C.2       1 <0>         0.5089
     35 O3          7.9595   -4.2721   -3.4634 O.co2     1 <0>        -0.6719
     36 O4          6.8224   -5.9502   -4.0779 O.co2     1 <0>        -0.6719
     37 H1         -1.7519    1.6291   -1.5004 H         1 <0>         0.0323
     38 H2         -2.2790   -0.0362   -1.1581 H         1 <0>         0.0765
     39 H3         -2.3309    1.1953    0.1259 H         1 <0>         0.0847
     40 H4          1.4210    1.4656   -0.0306 H         1 <0>         0.1065
     41 H5          0.1197    2.4968   -0.6719 H         1 <0>         0.0752
     42 H6          1.3098    3.6222    1.5246 H         1 <0>         0.4102
     43 H7          0.7530    5.6785    2.8270 H         1 <0>         0.1286
     44 H8         -0.0509    6.5321    4.9904 H         1 <0>         0.1322
     45 H9         -1.4243    2.6197    6.0257 H         1 <0>         0.1372
     46 H10        -0.6302    1.7664    3.8585 H         1 <0>         0.1637
     47 H11        -2.9276    6.8540    5.8823 H         1 <0>         0.1297
     48 H12        -2.8324    9.2821    6.2743 H         1 <0>         0.1307
     49 H13        -1.0366   10.2374    7.6601 H         1 <0>         0.1294
     50 H14         0.6669    8.7678    8.6584 H         1 <0>         0.1324
     51 H15         0.5722    6.3373    8.2809 H         1 <0>         0.1326
     52 H16         1.3111   -0.3981   -1.1394 H         1 <0>         0.0853
     53 H17        -0.8025   -1.9071   -0.5852 H         1 <0>         0.1052
     54 H18        -1.1728   -1.5696   -2.2942 H         1 <0>         0.0749
     55 H19         1.5866   -2.5049   -1.3876 H         1 <0>         0.0894
     56 H20         0.2987   -3.6534   -1.8074 H         1 <0>         0.1186
     57 H21         1.7221   -3.2822   -3.6724 H         1 <0>         0.1375
     58 H22         0.1044   -2.6372   -3.9818 H         1 <0>         0.1242
     59 H23         0.7783    0.3933   -4.7919 H         1 <0>         0.1273
     60 H24        -0.3798   -0.8368   -4.2462 H         1 <0>         0.1275
     61 H25        -0.7869    1.0001   -2.8166 H         1 <0>         0.1114
     62 H26         0.9366    1.3769   -2.6534 H         1 <0>         0.0880
     63 H27         1.8224   -1.7387   -5.7513 H         1 <0>         0.1312
     64 H28         2.7804   -0.3276   -5.2423 H         1 <0>         0.1311
     65 H29         4.8566   -0.6092   -4.0212 H         1 <0>         0.1211
     66 H30         6.7835   -2.0670   -3.5636 H         1 <0>         0.1385
     67 H31         4.4800   -5.4667   -4.8090 H         1 <0>         0.1391
     68 H32         2.5632   -3.9906   -5.2507 H         1 <0>         0.1233
     69 H33         2.1666   -0.8627   -2.9679 H         1 <0>         0.4204
@<TRIPOS>BOND
     1    1    2 1
     2    1   37 1
     3    1   38 1
     4    1   39 1
     5    2    3 1
     6    2   20 1
     7    3    4 1
     8    3   40 1
     9    3   41 1
    10    4    5 2
    11    4    6 am
    12    6    7 1
    13    6   42 1
    14    7   12 ar
    15    7    8 ar
    16    8    9 ar
    17    8   43 1
    18    9   10 ar
    19    9   44 1
    20   10   11 ar
    21   10   13 1
    22   11   12 ar
    23   11   45 1
    24   12   46 1
    25   13   14 1
    26   14   19 ar
    27   14   15 ar
    28   15   16 ar
    29   15   47 1
    30   16   17 ar
    31   16   48 1
    32   17   18 ar
    33   17   49 1
    34   18   19 ar
    35   18   50 1
    36   19   51 1
    37   20   26 1
    38   20   21 1
    39   20   52 1
    40   21   22 1
    41   21   53 1
    42   21   54 1
    43   22   23 1
    44   22   55 1
    45   22   56 1
    46   23   24 1
    47   23   57 1
    48   23   58 1
    49   24   25 1
    50   24   27 1
    51   24   69 1
    52   25   26 1
    53   25   59 1
    54   25   60 1
    55   26   61 1
    56   26   62 1
    57   27   28 1
    58   27   63 1
    59   27   64 1
    60   28   33 ar
    61   28   29 ar
    62   29   30 ar
    63   29   65 1
    64   30   31 ar
    65   30   66 1
    66   31   32 ar
    67   31   34 1
    68   32   33 ar
    69   32   67 1
    70   33   68 1
    71   34   35 2
    72   34   36 1
@<TRIPOS>MOLECULE
CHEMBL479570
   66    69     0     0     0
SMALL
USER_CHARGES

@<TRIPOS>ATOM
      1 C1          1.6991    1.8905   -0.9810 C.3       1 <0>        -0.0549
      2 N1          1.8438    0.4299   -0.9201 N.4       1 <0>        -0.3813
      3 C2          3.0879    0.0901   -0.2166 C.3       1 <0>         0.0476
      4 C3          2.9931    0.5415    1.2180 C.ar      1 <0>        -0.1803
      5 C4          3.4076    1.8146    1.5681 C.ar      1 <0>        -0.1127
      6 C5          3.3242    2.2344    2.8792 C.ar      1 <0>        -0.0851
      7 C6          2.8194    1.3710    3.8548 C.ar      1 <0>        -0.0901
      8 C7          2.4023    0.0873    3.4939 C.ar      1 <0>        -0.0840
      9 C8          2.4868   -0.3170    2.1780 C.ar      1 <0>        -0.1085
     10 C9          2.7275    1.8127    5.2596 C.2       1 <0>         0.5092
     11 O1          3.0937    2.9368    5.5724 O.co2     1 <0>        -0.6730
     12 O2          2.2851    1.0546    6.1112 O.co2     1 <0>        -0.6721
     13 C10         1.8877   -0.1151   -2.2835 C.3       1 <0>         0.0234
     14 C11         0.5882    0.2317   -3.0153 C.3       1 <0>        -0.1364
     15 C12         0.6141   -0.3902   -4.4133 C.3       1 <0>         0.0593
     16 N2          0.7591   -1.8471   -4.2998 N.3       1 <0>        -0.5231
     17 C13         2.0225   -2.2053   -3.6425 C.3       1 <0>         0.0516
     18 C14         2.0386   -1.6376   -2.2214 C.3       1 <0>        -0.1356
     19 C15         0.6491   -2.4913   -5.6154 C.3       1 <0>         0.0375
     20 C16         0.5559   -3.9848   -5.4372 C.2       1 <0>         0.5137
     21 O3          0.5790   -4.4653   -4.3238 O.2       1 <0>        -0.5012
     22 N3          0.4470   -4.7866   -6.5151 N.am      1 <0>        -0.6671
     23 C17         0.5306   -6.1770   -6.3651 C.ar      1 <0>         0.1079
     24 C18         0.9687   -6.9643   -7.4216 C.ar      1 <0>        -0.1090
     25 C19         1.0509   -8.3347   -7.2733 C.ar      1 <0>        -0.1716
     26 C20         0.6957   -8.9249   -6.0689 C.ar      1 <0>         0.1102
     27 C21         0.2579   -8.1386   -5.0129 C.ar      1 <0>        -0.1254
     28 C22         0.1808   -6.7677   -5.1582 C.ar      1 <0>        -0.0959
     29 O4          0.7764  -10.2742   -5.9236 O.3       1 <0>        -0.2584
     30 C23         1.3801  -10.9871   -6.9104 C.ar      1 <0>         0.0818
     31 C24         2.7641  -11.0038   -7.0087 C.ar      1 <0>        -0.1326
     32 C25         3.3753  -11.7293   -8.0128 C.ar      1 <0>        -0.1051
     33 C26         2.6091  -12.4382   -8.9197 C.ar      1 <0>        -0.1176
     34 C27         1.2298  -12.4233   -8.8240 C.ar      1 <0>        -0.1046
     35 C28         0.6138  -11.7044   -7.8180 C.ar      1 <0>        -0.1231
     36 H1          2.5473    2.3177   -1.5159 H         1 <0>         0.1184
     37 H2          0.7760    2.1427   -1.5030 H         1 <0>         0.1205
     38 H3          1.6665    2.2949    0.0307 H         1 <0>         0.1302
     39 H4          3.2404   -0.9887   -0.2487 H         1 <0>         0.1324
     40 H5          3.9270    0.5902   -0.7002 H         1 <0>         0.1284
     41 H6          3.7976    2.4808    0.8129 H         1 <0>         0.1211
     42 H7          3.6487    3.2280    3.1511 H         1 <0>         0.1381
     43 H8          2.0111   -0.5853    4.2429 H         1 <0>         0.1385
     44 H9          2.1607   -1.3075    1.8968 H         1 <0>         0.1223
     45 H10         2.7344    0.3133   -2.8200 H         1 <0>         0.1314
     46 H11        -0.2605   -0.1634   -2.4569 H         1 <0>         0.0972
     47 H12         0.4962    1.3145   -3.1003 H         1 <0>         0.0950
     48 H13        -0.3159   -0.1572   -4.9318 H         1 <0>         0.0968
     49 H14         1.4549    0.0157   -4.9759 H         1 <0>         0.0475
     50 H15         2.1154   -3.2906   -3.6011 H         1 <0>         0.1125
     51 H16         2.8567   -1.7909   -4.2086 H         1 <0>         0.0412
     52 H17         2.9829   -1.8903   -1.7392 H         1 <0>         0.0939
     53 H18         1.2128   -2.0621   -1.6505 H         1 <0>         0.0987
     54 H19        -0.2449   -2.1295   -6.1234 H         1 <0>         0.1141
     55 H20         1.5287   -2.2508   -6.2124 H         1 <0>         0.0741
     56 H21         0.3107   -4.4009   -7.3946 H         1 <0>         0.4120
     57 H22         1.2449   -6.5050   -8.3593 H         1 <0>         0.1292
     58 H23         1.3913   -8.9472   -8.0951 H         1 <0>         0.1325
     59 H24        -0.0184   -8.5986   -4.0756 H         1 <0>         0.1374
     60 H25        -0.1558   -6.1553   -4.3347 H         1 <0>         0.1639
     61 H26         3.3629  -10.4497   -6.3010 H         1 <0>         0.1297
     62 H27         4.4524  -11.7426   -8.0898 H         1 <0>         0.1309
     63 H28         3.0889  -13.0042   -9.7044 H         1 <0>         0.1296
     64 H29         0.6337  -12.9775   -9.5338 H         1 <0>         0.1324
     65 H30        -0.4634  -11.6967   -7.7410 H         1 <0>         0.1325
     66 H31         1.0587    0.0345   -0.4249 H         1 <0>         0.4237
@<TRIPOS>BOND
     1    1    2 1
     2    1   36 1
     3    1   37 1
     4    1   38 1
     5    2    3 1
     6    2   13 1
     7    2   66 1
     8    3    4 1
     9    3   39 1
    10    3   40 1
    11    4    9 ar
    12    4    5 ar
    13    5    6 ar
    14    5   41 1
    15    6    7 ar
    16    6   42 1
    17    7    8 ar
    18    7   10 1
    19    8    9 ar
    20    8   43 1
    21    9   44 1
    22   10   11 2
    23   10   12 1
    24   13   18 1
    25   13   14 1
    26   13   45 1
    27   14   15 1
    28   14   46 1
    29   14   47 1
    30   15   16 1
    31   15   48 1
    32   15   49 1
    33   16   17 1
    34   16   19 1
    35   17   18 1
    36   17   50 1
    37   17   51 1
    38   18   52 1
    39   18   53 1
    40   19   20 1
    41   19   54 1
    42   19   55 1
    43   20   21 2
    44   20   22 am
    45   22   23 1
    46   22   56 1
    47   23   28 ar
    48   23   24 ar
    49   24   25 ar
    50   24   57 1
    51   25   26 ar
    52   25   58 1
    53   26   27 ar
    54   26   29 1
    55   27   28 ar
    56   27   59 1
    57   28   60 1
    58   29   30 1
    59   30   35 ar
    60   30   31 ar
    61   31   32 ar
    62   31   61 1
    63   32   33 ar
    64   32   62 1
    65   33   34 ar
    66   33   63 1
    67   34   35 ar
    68   34   64 1
    69   35   65 1
@<TRIPOS>MOLECULE
CHEMBL479570__1
   66    69     0     0     0
SMALL
USER_CHARGES

@<TRIPOS>ATOM
      1 C1          0.1180   -0.6376   -0.2793 C.3       1 <0>         0.0074
      2 N1          0.7976   -1.8975   -0.6091 N.3       1 <0>        -0.5204
      3 C2          1.6636   -2.3331    0.4947 C.3       1 <0>         0.1045
      4 C3          0.8156   -2.6853    1.6896 C.ar      1 <0>        -0.1095
      5 C4          0.4992   -1.7115    2.6205 C.ar      1 <0>        -0.1313
      6 C5         -0.2761   -2.0266    3.7167 C.ar      1 <0>        -0.0869
      7 C6         -0.7426   -3.3327    3.8859 C.ar      1 <0>        -0.1205
      8 C7         -0.4196   -4.3106    2.9417 C.ar      1 <0>        -0.0866
      9 C8          0.3523   -3.9797    1.8477 C.ar      1 <0>        -0.1138
     10 C9         -1.5721   -3.6778    5.0563 C.2       1 <0>         0.5148
     11 O1         -1.8528   -2.8196    5.8811 O.co2     1 <0>        -0.6840
     12 O2         -1.9789   -4.8218    5.2015 O.co2     1 <0>        -0.6828
     13 C10         1.5599   -1.7731   -1.8587 C.3       1 <0>         0.0737
     14 C11         2.5898   -0.6482   -1.7204 C.3       1 <0>        -0.1886
     15 C12         3.3252   -0.4711   -3.0506 C.3       1 <0>         0.0011
     16 N2          2.3625   -0.1283   -4.1042 N.4       1 <0>        -0.3703
     17 C13         1.4149   -1.2335   -4.2918 C.3       1 <0>        -0.0157
     18 C14         0.6060   -1.4399   -3.0094 C.3       1 <0>        -0.1378
     19 C15         3.0816    0.1169   -5.3615 C.3       1 <0>        -0.0288
     20 C16         2.1096    0.5878   -6.4125 C.2       1 <0>         0.4997
     21 O3          0.9336    0.7074   -6.1409 O.2       1 <0>        -0.5077
     22 N3          2.5471    0.8760   -7.6542 N.am      1 <0>        -0.6389
     23 C17         1.6274    1.1494   -8.6751 C.ar      1 <0>         0.0850
     24 C18         1.9667    0.9052   -9.9992 C.ar      1 <0>        -0.0951
     25 C19         1.0599    1.1748  -11.0050 C.ar      1 <0>        -0.1725
     26 C20        -0.1901    1.6897  -10.6927 C.ar      1 <0>         0.1260
     27 C21        -0.5297    1.9339   -9.3697 C.ar      1 <0>        -0.1273
     28 C22         0.3742    1.6592   -8.3627 C.ar      1 <0>        -0.0882
     29 O4         -1.0824    1.9554  -11.6834 O.3       1 <0>        -0.2544
     30 C23        -0.7845    1.5335  -12.9402 C.ar      1 <0>         0.0755
     31 C24        -0.9397    0.1970  -13.2798 C.ar      1 <0>        -0.1314
     32 C25        -0.6361   -0.2292  -14.5582 C.ar      1 <0>        -0.1044
     33 C26        -0.1775    0.6744  -15.4990 C.ar      1 <0>        -0.1141
     34 C27        -0.0220    2.0067  -15.1632 C.ar      1 <0>        -0.1040
     35 C28        -0.3300    2.4394  -13.8880 C.ar      1 <0>        -0.1213
     36 H1          0.8609    0.1375   -0.0911 H         1 <0>         0.0287
     37 H2         -0.5165   -0.3379   -1.1134 H         1 <0>         0.0684
     38 H3         -0.4946   -0.7776    0.6113 H         1 <0>         0.0895
     39 H4          2.2354   -3.2077    0.1845 H         1 <0>         0.0812
     40 H5          2.3478   -1.5270    0.7596 H         1 <0>         0.0419
     41 H6          0.8605   -0.7023    2.4884 H         1 <0>         0.1070
     42 H7         -0.5217   -1.2658    4.4428 H         1 <0>         0.1266
     43 H8         -0.7768   -5.3222    3.0662 H         1 <0>         0.1276
     44 H9          0.5992   -4.7335    1.1147 H         1 <0>         0.1125
     45 H10         2.0707   -2.7127   -2.0691 H         1 <0>         0.0989
     46 H11         2.0820    0.2801   -1.4589 H         1 <0>         0.0934
     47 H12         3.3061   -0.9044   -0.9398 H         1 <0>         0.1156
     48 H13         4.0594    0.3289   -2.9556 H         1 <0>         0.1304
     49 H14         3.8329   -1.3999   -3.3110 H         1 <0>         0.1319
     50 H15         0.7387   -0.9962   -5.1131 H         1 <0>         0.1477
     51 H16         1.9633   -2.1459   -4.5258 H         1 <0>         0.1264
     52 H17        -0.0958   -2.2620   -3.1501 H         1 <0>         0.1216
     53 H18         0.0569   -0.5280   -2.7746 H         1 <0>         0.0920
     54 H19         3.8425    0.8809   -5.2019 H         1 <0>         0.1614
     55 H20         3.5573   -0.8058   -5.6939 H         1 <0>         0.1624
     56 H21         3.4988    0.8943   -7.8411 H         1 <0>         0.4197
     57 H22         2.9398    0.5048  -10.2425 H         1 <0>         0.1331
     58 H23         1.3238    0.9852  -12.0349 H         1 <0>         0.1375
     59 H24        -1.5028    2.3346   -9.1272 H         1 <0>         0.1417
     60 H25         0.1082    1.8452   -7.3327 H         1 <0>         0.1620
     61 H26        -1.2972   -0.5093  -12.5452 H         1 <0>         0.1303
     62 H27        -0.7567   -1.2693  -14.8230 H         1 <0>         0.1325
     63 H28         0.0600    0.3390  -16.4977 H         1 <0>         0.1313
     64 H29         0.3367    2.7104  -15.8998 H         1 <0>         0.1339
     65 H30        -0.2126    3.4809  -13.6275 H         1 <0>         0.1331
     66 H31         1.8582    0.7046   -3.8396 H         1 <0>         0.4290
@<TRIPOS>BOND
     1    1    2 1
     2    1   36 1
     3    1   37 1
     4    1   38 1
     5    2    3 1
     6    2   13 1
     7    3    4 1
     8    3   39 1
     9    3   40 1
    10    4    9 ar
    11    4    5 ar
    12    5    6 ar
    13    5   41 1
    14    6    7 ar
    15    6   42 1
    16    7    8 ar
    17    7   10 1
    18    8    9 ar
    19    8   43 1
    20    9   44 1
    21   10   11 2
    22   10   12 1
    23   13   18 1
    24   13   14 1
    25   13   45 1
    26   14   15 1
    27   14   46 1
    28   14   47 1
    29   15   16 1
    30   15   48 1
    31   15   49 1
    32   16   17 1
    33   16   19 1
    34   16   66 1
    35   17   18 1
    36   17   50 1
    37   17   51 1
    38   18   52 1
    39   18   53 1
    40   19   20 1
    41   19   54 1
    42   19   55 1
    43   20   21 2
    44   20   22 am
    45   22   23 1
    46   22   56 1
    47   23   28 ar
    48   23   24 ar
    49   24   25 ar
    50   24   57 1
    51   25   26 ar
    52   25   58 1
    53   26   27 ar
    54   26   29 1
    55   27   28 ar
    56   27   59 1
    57   28   60 1
    58   29   30 1
    59   30   35 ar
    60   30   31 ar
    61   31   32 ar
    62   31   61 1
    63   32   33 ar
    64   32   62 1
    65   33   34 ar
    66   33   63 1
    67   34   35 ar
    68   34   64 1
    69   35   65 1
@<TRIPOS>MOLECULE
CHEMBL479387
   69    72     0     0     0
SMALL
USER_CHARGES

@<TRIPOS>ATOM
      1 C1         -0.8427   -2.4791   -0.6852 C.3       1 <0>         0.0110
      2 N1          0.5444   -2.0121   -0.5600 N.3       1 <0>        -0.5228
      3 C2          1.1636   -2.5249    0.6694 C.3       1 <0>         0.1082
      4 C3          1.2967   -4.0233    0.5776 C.ar      1 <0>        -0.1109
      5 C4          0.2686   -4.8345    1.0248 C.ar      1 <0>        -0.1296
      6 C5          0.3836   -6.2065    0.9444 C.ar      1 <0>        -0.0864
      7 C6          1.5414   -6.7769    0.4094 C.ar      1 <0>        -0.1184
      8 C7          2.5751   -5.9516   -0.0406 C.ar      1 <0>        -0.0870
      9 C8          2.4440   -4.5811    0.0414 C.ar      1 <0>        -0.1133
     10 C9          1.6721   -8.2438    0.3204 C.2       1 <0>         0.5139
     11 O1          0.7658   -8.9635    0.7154 O.co2     1 <0>        -0.6829
     12 O2          2.6868   -8.7400   -0.1484 O.co2     1 <0>        -0.6825
     13 C10         0.6129   -0.5456   -0.6118 C.3       1 <0>         0.0278
     14 C11         0.3706   -0.0741   -2.0470 C.3       1 <0>         0.0281
     15 C12         1.5149   -0.5559   -2.9415 C.3       1 <0>        -0.1283
     16 C13         2.8358    0.0245   -2.4281 C.3       1 <0>        -0.1380
     17 C14         2.7311    1.5519   -2.3918 C.3       1 <0>        -0.1394
     18 C15         1.5418    1.9555   -1.5177 C.3       1 <0>        -0.0218
     19 N2          0.3065    1.3920   -2.0754 N.4       1 <0>        -0.3630
     20 C16        -0.8407    1.8461   -1.2781 C.3       1 <0>        -0.0351
     21 C17        -1.0042    3.3358   -1.4363 C.2       1 <0>         0.5021
     22 O3         -0.2403    3.9581   -2.1437 O.2       1 <0>        -0.5099
     23 N3         -1.9994    3.9767   -0.7918 N.am      1 <0>        -0.6425
     24 C18        -2.2143    5.3426   -1.0171 C.ar      1 <0>         0.0875
     25 C19        -2.6766    6.1520    0.0121 C.ar      1 <0>        -0.0906
     26 C20        -2.8883    7.4982   -0.2105 C.ar      1 <0>        -0.1741
     27 C21        -2.6392    8.0421   -1.4624 C.ar      1 <0>         0.1282
     28 C22        -2.1773    7.2338   -2.4912 C.ar      1 <0>        -0.1275
     29 C23        -1.9598    5.8887   -2.2682 C.ar      1 <0>        -0.0743
     30 O4         -2.8483    9.3675   -1.6812 O.3       1 <0>        -0.2540
     31 C24        -3.1979   10.1418   -0.6207 C.ar      1 <0>         0.0749
     32 C25        -2.2370   10.5333    0.3007 C.ar      1 <0>        -0.1320
     33 C26        -2.5950   11.3204    1.3780 C.ar      1 <0>        -0.1046
     34 C27        -3.9096   11.7177    1.5388 C.ar      1 <0>        -0.1137
     35 C28        -4.8691   11.3290    0.6221 C.ar      1 <0>        -0.1037
     36 C29        -4.5152   10.5470   -0.4603 C.ar      1 <0>        -0.1204
     37 H1         -1.4015   -2.2018    0.2086 H         1 <0>         0.0341
     38 H2         -1.3036   -2.0189   -1.5592 H         1 <0>         0.0615
     39 H3         -0.8523   -3.5633   -0.7979 H         1 <0>         0.0930
     40 H4          2.1508   -2.0794    0.7923 H         1 <0>         0.0820
     41 H5          0.5397   -2.2674    1.5253 H         1 <0>         0.0456
     42 H6         -0.6257   -4.3922    1.4382 H         1 <0>         0.1081
     43 H7         -0.4192   -6.8385    1.2944 H         1 <0>         0.1272
     44 H8          3.4729   -6.3856   -0.4553 H         1 <0>         0.1277
     45 H9          3.2403   -3.9417   -0.3100 H         1 <0>         0.1119
     46 H10        -0.1492   -0.1230    0.0430 H         1 <0>         0.0510
     47 H11         1.5983   -0.2160   -0.2825 H         1 <0>         0.1008
     48 H12        -0.5712   -0.4856   -2.4101 H         1 <0>         0.1386
     49 H13         1.5619   -1.6446   -2.9176 H         1 <0>         0.1281
     50 H14         1.3431   -0.2207   -3.9643 H         1 <0>         0.0825
     51 H15         3.0333   -0.3513   -1.4242 H         1 <0>         0.0842
     52 H16         3.6466   -0.2696   -3.0947 H         1 <0>         0.0943
     53 H17         3.6476    1.9697   -1.9751 H         1 <0>         0.1096
     54 H18         2.5846    1.9308   -3.4033 H         1 <0>         0.0875
     55 H19         1.6894    1.5763   -0.5065 H         1 <0>         0.1249
     56 H20         1.4645    3.0424   -1.4896 H         1 <0>         0.1425
     57 H21        -1.7442    1.3428   -1.6221 H         1 <0>         0.1626
     58 H22        -0.6700    1.6088   -0.2280 H         1 <0>         0.1602
     59 H23        -2.5668    3.4922   -0.1719 H         1 <0>         0.4195
     60 H24        -2.8708    5.7286    0.9865 H         1 <0>         0.1339
     61 H25        -3.2482    8.1277    0.5898 H         1 <0>         0.1382
     62 H26        -1.9836    7.6578   -3.4655 H         1 <0>         0.1417
     63 H27        -1.5960    5.2605   -3.0678 H         1 <0>         0.1423
     64 H28        -1.2102   10.2226    0.1759 H         1 <0>         0.1302
     65 H29        -1.8476   11.6254    2.0954 H         1 <0>         0.1326
     66 H30        -4.1876   12.3325    2.3821 H         1 <0>         0.1314
     67 H31        -5.8952   11.6404    0.7503 H         1 <0>         0.1342
     68 H32        -5.2642   10.2474   -1.1784 H         1 <0>         0.1333
     69 H33         0.1959    1.7044   -3.0285 H         1 <0>         0.4299
@<TRIPOS>BOND
     1    1    2 1
     2    1   37 1
     3    1   38 1
     4    1   39 1
     5    2    3 1
     6    2   13 1
     7    3    4 1
     8    3   40 1
     9    3   41 1
    10    4    9 ar
    11    4    5 ar
    12    5    6 ar
    13    5   42 1
    14    6    7 ar
    15    6   43 1
    16    7    8 ar
    17    7   10 1
    18    8    9 ar
    19    8   44 1
    20    9   45 1
    21   10   11 2
    22   10   12 1
    23   13   14 1
    24   13   46 1
    25   13   47 1
    26   14   19 1
    27   14   15 1
    28   14   48 1
    29   15   16 1
    30   15   49 1
    31   15   50 1
    32   16   17 1
    33   16   51 1
    34   16   52 1
    35   17   18 1
    36   17   53 1
    37   17   54 1
    38   18   19 1
    39   18   55 1
    40   18   56 1
    41   19   20 1
    42   19   69 1
    43   20   21 1
    44   20   57 1
    45   20   58 1
    46   21   22 2
    47   21   23 am
    48   23   24 1
    49   23   59 1
    50   24   29 ar
    51   24   25 ar
    52   25   26 ar
    53   25   60 1
    54   26   27 ar
    55   26   61 1
    56   27   28 ar
    57   27   30 1
    58   28   29 ar
    59   28   62 1
    60   29   63 1
    61   30   31 1
    62   31   36 ar
    63   31   32 ar
    64   32   33 ar
    65   32   64 1
    66   33   34 ar
    67   33   65 1
    68   34   35 ar
    69   34   66 1
    70   35   36 ar
    71   35   67 1
    72   36   68 1
@<TRIPOS>MOLECULE
CHEMBL479387__1
   69    72     0     0     0
SMALL
USER_CHARGES

@<TRIPOS>ATOM
      1 C1         -0.8016   -2.4316    1.5495 C.3       1 <0>        -0.0570
      2 N1         -1.0442   -2.0889    0.1418 N.4       1 <0>        -0.3794
      3 C2         -0.0238   -2.7271   -0.7004 C.3       1 <0>         0.0519
      4 C3         -0.1735   -4.2247   -0.6232 C.ar      1 <0>        -0.1829
      5 C4          0.5075   -4.9355    0.3495 C.ar      1 <0>        -0.1112
      6 C5          0.3756   -6.3062    0.4259 C.ar      1 <0>        -0.0849
      7 C6         -0.4483   -6.9770   -0.4815 C.ar      1 <0>        -0.0885
      8 C7         -1.1330   -6.2527   -1.4606 C.ar      1 <0>        -0.0841
      9 C8         -0.9956   -4.8817   -1.5217 C.ar      1 <0>        -0.1087
     10 C9         -0.5941   -8.4433   -0.4064 C.2       1 <0>         0.5088
     11 O1          0.0069   -9.0744    0.4515 O.co2     1 <0>        -0.6721
     12 O2         -1.3160   -9.0275   -1.2021 O.co2     1 <0>        -0.6716
     13 C10        -0.9759   -0.6311   -0.0261 C.3       1 <0>        -0.0579
     14 C11        -2.1373    0.0236    0.7244 C.3       1 <0>         0.0684
     15 C12        -3.4605   -0.3869    0.0743 C.3       1 <0>        -0.1274
     16 C13        -3.4786    0.0905   -1.3805 C.3       1 <0>        -0.1299
     17 C14        -3.2802    1.6084   -1.4138 C.3       1 <0>        -0.1188
     18 C15        -1.9622    1.9611   -0.7206 C.3       1 <0>         0.0455
     19 N2         -1.9951    1.4841    0.6679 N.3       1 <0>        -0.4943
     20 C16        -0.8034    1.9259    1.4046 C.3       1 <0>         0.0270
     21 C17        -0.9011    3.4047    1.6775 C.2       1 <0>         0.5108
     22 O3         -1.8683    4.0293    1.2959 O.2       1 <0>        -0.4927
     23 N3          0.0862    4.0334    2.3457 N.am      1 <0>        -0.6716
     24 C18        -0.0616    5.3773    2.7126 C.ar      1 <0>         0.1089
     25 C19         1.0467    6.2131    2.7497 C.ar      1 <0>        -0.1040
     26 C20         0.9004    7.5376    3.1114 C.ar      1 <0>        -0.1735
     27 C21        -0.3537    8.0335    3.4377 C.ar      1 <0>         0.1144
     28 C22        -1.4615    7.1988    3.4008 C.ar      1 <0>        -0.1249
     29 C23        -1.3173    5.8756    3.0337 C.ar      1 <0>        -0.0797
     30 O4         -0.4970    9.3375    3.7942 O.3       1 <0>        -0.2574
     31 C24         0.5923   10.1454    3.7098 C.ar      1 <0>         0.0808
     32 C25         1.0091   10.6235    2.4757 C.ar      1 <0>        -0.1326
     33 C26         2.1169   11.4445    2.3927 C.ar      1 <0>        -0.1051
     34 C27         2.8105   11.7897    3.5380 C.ar      1 <0>        -0.1169
     35 C28         2.3973   11.3147    4.7690 C.ar      1 <0>        -0.1046
     36 C29         1.2865   10.4983    4.8583 C.ar      1 <0>        -0.1223
     37 H1         -0.9217   -3.5061    1.6878 H         1 <0>         0.1318
     38 H2          0.2123   -2.1410    1.8247 H         1 <0>         0.1204
     39 H3         -1.5152   -1.9020    2.1806 H         1 <0>         0.1205
     40 H4         -0.1499   -2.4022   -1.7332 H         1 <0>         0.1289
     41 H5          0.9678   -2.4425   -0.3485 H         1 <0>         0.1292
     42 H6          1.1440   -4.4156    1.0502 H         1 <0>         0.1214
     43 H7          0.9082   -6.8598    1.1851 H         1 <0>         0.1387
     44 H8         -1.7716   -6.7647   -2.1652 H         1 <0>         0.1388
     45 H9         -1.5278   -4.3201   -2.2752 H         1 <0>         0.1216
     46 H10        -0.0312   -0.2632    0.3742 H         1 <0>         0.1258
     47 H11        -1.0425   -0.3839   -1.0856 H         1 <0>         0.1348
     48 H12        -2.1274   -0.3022    1.7645 H         1 <0>         0.1084
     49 H13        -3.5586   -1.4721    0.1025 H         1 <0>         0.0679
     50 H14        -4.2892    0.0682    0.6169 H         1 <0>         0.1003
     51 H15        -2.6737   -0.3943   -1.9329 H         1 <0>         0.0568
     52 H16        -4.4368   -0.1617   -1.8347 H         1 <0>         0.0812
     53 H17        -3.2494    1.9487   -2.4489 H         1 <0>         0.0765
     54 H18        -4.1060    2.0948   -0.8946 H         1 <0>         0.0827
     55 H19        -1.1356    1.4855   -1.2485 H         1 <0>         0.0357
     56 H20        -1.8249    3.0423   -0.7300 H         1 <0>         0.0976
     57 H21        -0.7391    1.3856    2.3491 H         1 <0>         0.1133
     58 H22         0.0872    1.7243    0.8094 H         1 <0>         0.0715
     59 H23         0.8991    3.5553    2.5726 H         1 <0>         0.4097
     60 H24         2.0229    5.8271    2.4961 H         1 <0>         0.1293
     61 H25         1.7624    8.1876    3.1407 H         1 <0>         0.1334
     62 H26        -2.4374    7.5854    3.6549 H         1 <0>         0.1382
     63 H27        -2.1803    5.2271    3.0007 H         1 <0>         0.1432
     64 H28         0.4681   10.3536    1.5807 H         1 <0>         0.1301
     65 H29         2.4417   11.8169    1.4323 H         1 <0>         0.1312
     66 H30         3.6767   12.4312    3.4708 H         1 <0>         0.1298
     67 H31         2.9410   11.5855    5.6620 H         1 <0>         0.1327
     68 H32         0.9615   10.1312    5.8206 H         1 <0>         0.1326
     69 H33        -1.9586   -2.4164   -0.1313 H         1 <0>         0.4234
@<TRIPOS>BOND
     1    1    2 1
     2    1   37 1
     3    1   38 1
     4    1   39 1
     5    2    3 1
     6    2   13 1
     7    2   69 1
     8    3    4 1
     9    3   40 1
    10    3   41 1
    11    4    9 ar
    12    4    5 ar
    13    5    6 ar
    14    5   42 1
    15    6    7 ar
    16    6   43 1
    17    7    8 ar
    18    7   10 1
    19    8    9 ar
    20    8   44 1
    21    9   45 1
    22   10   11 2
    23   10   12 1
    24   13   14 1
    25   13   46 1
    26   13   47 1
    27   14   19 1
    28   14   15 1
    29   14   48 1
    30   15   16 1
    31   15   49 1
    32   15   50 1
    33   16   17 1
    34   16   51 1
    35   16   52 1
    36   17   18 1
    37   17   53 1
    38   17   54 1
    39   18   19 1
    40   18   55 1
    41   18   56 1
    42   19   20 1
    43   20   21 1
    44   20   57 1
    45   20   58 1
    46   21   22 2
    47   21   23 am
    48   23   24 1
    49   23   59 1
    50   24   29 ar
    51   24   25 ar
    52   25   26 ar
    53   25   60 1
    54   26   27 ar
    55   26   61 1
    56   27   28 ar
    57   27   30 1
    58   28   29 ar
    59   28   62 1
    60   29   63 1
    61   30   31 1
    62   31   36 ar
    63   31   32 ar
    64   32   33 ar
    65   32   64 1
    66   33   34 ar
    67   33   65 1
    68   34   35 ar
    69   34   66 1
    70   35   36 ar
    71   35   67 1
    72   36   68 1
@<TRIPOS>MOLECULE
CHEMBL479387__2
   69    72     0     0     0
SMALL
USER_CHARGES

@<TRIPOS>ATOM
      1 C1          0.6287    1.6531    0.2045 C.3       1 <0>         0.0025
      2 N1          0.3342    0.3720    0.8603 N.3       1 <0>        -0.5469
      3 C2          0.6354    0.4344    2.2967 C.3       1 <0>         0.0975
      4 C3         -0.3046    1.4040    2.9655 C.ar      1 <0>        -0.1127
      5 C4          0.0404    2.7405    3.0644 C.ar      1 <0>        -0.1263
      6 C5         -0.8148    3.6335    3.6755 C.ar      1 <0>        -0.0832
      7 C6         -2.0321    3.1859    4.1950 C.ar      1 <0>        -0.1156
      8 C7         -2.3739    1.8351    4.0912 C.ar      1 <0>        -0.0870
      9 C8         -1.5111    0.9545    3.4728 C.ar      1 <0>        -0.1235
     10 C9         -2.9520    4.1350    4.8506 C.2       1 <0>         0.5126
     11 O1         -2.6497    5.3165    4.9403 O.co2     1 <0>        -0.6801
     12 O2         -4.0168    3.7401    5.3044 O.co2     1 <0>        -0.6820
     13 C10         1.0636   -0.7288    0.2168 C.3       1 <0>         0.0176
     14 C11         0.5424   -0.9213   -1.2088 C.3       1 <0>         0.0312
     15 C12         1.5283   -1.7840   -1.9995 C.3       1 <0>        -0.1374
     16 C13         1.0027   -1.9736   -3.4253 C.3       1 <0>        -0.1361
     17 C14        -0.3949   -2.5968   -3.3649 C.3       1 <0>        -0.1414
     18 C15        -1.3095   -1.7040   -2.5236 C.3       1 <0>        -0.0156
     19 N2         -0.7669   -1.5834   -1.1652 N.4       1 <0>        -0.3578
     20 C16        -1.6878   -0.7901   -0.3402 C.3       1 <0>        -0.0558
     21 C17        -2.9518   -1.5753   -0.1017 C.2       1 <0>         0.5029
     22 O3         -3.0735   -2.6864   -0.5727 O.2       1 <0>        -0.5290
     23 N3         -3.9470   -1.0428    0.6348 N.am      1 <0>        -0.6402
     24 C18        -5.0771   -1.8107    0.9448 C.ar      1 <0>         0.0897
     25 C19        -5.7064   -1.6560    2.1728 C.ar      1 <0>        -0.0867
     26 C20        -6.8201   -2.4131    2.4778 C.ar      1 <0>        -0.1725
     27 C21        -7.3103   -3.3284    1.5575 C.ar      1 <0>         0.1248
     28 C22        -6.6819   -3.4835    0.3302 C.ar      1 <0>        -0.1329
     29 C23        -5.5715   -2.7228    0.0219 C.ar      1 <0>        -0.0757
     30 O4         -8.4066   -4.0739    1.8585 O.3       1 <0>        -0.2566
     31 C24        -9.0749   -3.7906    3.0071 C.ar      1 <0>         0.0755
     32 C25        -9.9406   -2.7073    3.0585 C.ar      1 <0>        -0.1296
     33 C26       -10.6187   -2.4215    4.2274 C.ar      1 <0>        -0.1032
     34 C27       -10.4353   -3.2135    5.3459 C.ar      1 <0>        -0.1136
     35 C28        -9.5733   -4.2935    5.2975 C.ar      1 <0>        -0.1048
     36 C29        -8.8974   -4.5875    4.1292 C.ar      1 <0>        -0.1223
     37 H1          1.6850    1.8912    0.3301 H         1 <0>         0.0452
     38 H2          0.3967    1.5792   -0.8579 H         1 <0>         0.0650
     39 H3          0.0230    2.4395    0.6548 H         1 <0>         0.0959
     40 H4          0.5111   -0.5548    2.7374 H         1 <0>         0.0855
     41 H5          1.6632    0.7686    2.4383 H         1 <0>         0.0563
     42 H6          0.9817    3.0850    2.6623 H         1 <0>         0.1112
     43 H7         -0.5440    4.6761    3.7525 H         1 <0>         0.1285
     44 H8         -3.3133    1.4822    4.4905 H         1 <0>         0.1272
     45 H9         -1.7760   -0.0890    3.3879 H         1 <0>         0.1090
     46 H10         2.1269   -0.4910    0.1859 H         1 <0>         0.0894
     47 H11         0.9128   -1.6462    0.7858 H         1 <0>         0.0993
     48 H12         0.4419    0.0502   -1.6927 H         1 <0>         0.1407
     49 H13         2.4993   -1.2898   -2.0322 H         1 <0>         0.1110
     50 H14         1.6300   -2.7560   -1.5167 H         1 <0>         0.0895
     51 H15         0.9494   -1.0068   -3.9257 H         1 <0>         0.0807
     52 H16         1.6727   -2.6339   -3.9760 H         1 <0>         0.0936
     53 H17        -0.7986   -2.6836   -4.3737 H         1 <0>         0.1094
     54 H18        -0.3332   -3.5856   -2.9105 H         1 <0>         0.0880
     55 H19        -1.3707   -0.7156   -2.9790 H         1 <0>         0.1227
     56 H20        -2.3055   -2.1446   -2.4788 H         1 <0>         0.1398
     57 H21        -1.2155   -0.5628    0.6155 H         1 <0>         0.2097
     58 H22        -1.9292    0.1391   -0.8563 H         1 <0>         0.1525
     59 H23        -3.8809   -0.1280    0.9503 H         1 <0>         0.4234
     60 H24        -5.3247   -0.9438    2.8894 H         1 <0>         0.1386
     61 H25        -7.3094   -2.2931    3.4331 H         1 <0>         0.1378
     62 H26        -7.0639   -4.1961   -0.3858 H         1 <0>         0.1382
     63 H27        -5.0851   -2.8403   -0.9351 H         1 <0>         0.1437
     64 H28       -10.0837   -2.0880    2.1853 H         1 <0>         0.1307
     65 H29       -11.2926   -1.5785    4.2679 H         1 <0>         0.1330
     66 H30       -10.9660   -2.9879    6.2591 H         1 <0>         0.1310
     67 H31        -9.4315   -4.9103    6.1726 H         1 <0>         0.1328
     68 H32        -8.2276   -5.4338    4.0906 H         1 <0>         0.1315
     69 H33        -0.6645   -2.5027   -0.7621 H         1 <0>         0.4234
@<TRIPOS>BOND
     1    1    2 1
     2    1   37 1
     3    1   38 1
     4    1   39 1
     5    2    3 1
     6    2   13 1
     7    3    4 1
     8    3   40 1
     9    3   41 1
    10    4    9 ar
    11    4    5 ar
    12    5    6 ar
    13    5   42 1
    14    6    7 ar
    15    6   43 1
    16    7    8 ar
    17    7   10 1
    18    8    9 ar
    19    8   44 1
    20    9   45 1
    21   10   11 2
    22   10   12 1
    23   13   14 1
    24   13   46 1
    25   13   47 1
    26   14   19 1
    27   14   15 1
    28   14   48 1
    29   15   16 1
    30   15   49 1
    31   15   50 1
    32   16   17 1
    33   16   51 1
    34   16   52 1
    35   17   18 1
    36   17   53 1
    37   17   54 1
    38   18   19 1
    39   18   55 1
    40   18   56 1
    41   19   20 1
    42   19   69 1
    43   20   21 1
    44   20   57 1
    45   20   58 1
    46   21   22 2
    47   21   23 am
    48   23   24 1
    49   23   59 1
    50   24   29 ar
    51   24   25 ar
    52   25   26 ar
    53   25   60 1
    54   26   27 ar
    55   26   61 1
    56   27   28 ar
    57   27   30 1
    58   28   29 ar
    59   28   62 1
    60   29   63 1
    61   30   31 1
    62   31   36 ar
    63   31   32 ar
    64   32   33 ar
    65   32   64 1
    66   33   34 ar
    67   33   65 1
    68   34   35 ar
    69   34   66 1
    70   35   36 ar
    71   35   67 1
    72   36   68 1
@<TRIPOS>MOLECULE
CHEMBL479387__3
   69    72     0     0     0
SMALL
USER_CHARGES

@<TRIPOS>ATOM
      1 C1         -1.0186   -2.1348    2.5587 C.3       1 <0>        -0.0756
      2 N1         -2.1109   -1.9081    1.6029 N.4       1 <0>        -0.3767
      3 C2         -2.0580   -2.9288    0.5478 C.3       1 <0>         0.0483
      4 C3         -2.3275   -4.2851    1.1469 C.ar      1 <0>        -0.1791
      5 C4         -1.2766   -5.0477    1.6253 C.ar      1 <0>        -0.1108
      6 C5         -1.5157   -6.2900    2.1746 C.ar      1 <0>        -0.0840
      7 C6         -2.8229   -6.7779    2.2477 C.ar      1 <0>        -0.0899
      8 C7         -3.8790   -6.0021    1.7631 C.ar      1 <0>        -0.0843
      9 C8         -3.6254   -4.7594    1.2212 C.ar      1 <0>        -0.1096
     10 C9         -3.0867   -8.1061    2.8334 C.2       1 <0>         0.5095
     11 O1         -2.1600   -8.7828    3.2563 O.co2     1 <0>        -0.6725
     12 O2         -4.2320   -8.5302    2.8960 O.co2     1 <0>        -0.6729
     13 C10        -1.9673   -0.5752    1.0023 C.3       1 <0>        -0.0095
     14 C11        -2.2186    0.4939    2.0676 C.3       1 <0>         0.0582
     15 C12        -3.5950    0.2714    2.6986 C.3       1 <0>        -0.1268
     16 C13        -3.8337    1.3312    3.7777 C.3       1 <0>        -0.1208
     17 C14        -2.7149    1.2482    4.8197 C.3       1 <0>        -0.1207
     18 C15        -1.3640    1.4424    4.1273 C.3       1 <0>         0.0528
     19 N2         -1.1829    0.4041    3.1048 N.3       1 <0>        -0.5215
     20 C16         0.1605    0.4748    2.5148 C.3       1 <0>         0.0124
     21 C17         1.1768   -0.0001    3.5211 C.2       1 <0>         0.5059
     22 O3          0.8173   -0.3619    4.6216 O.2       1 <0>        -0.4921
     23 N3          2.4851   -0.0227    3.1984 N.am      1 <0>        -0.6687
     24 C18         3.4230   -0.5242    4.1103 C.ar      1 <0>         0.1032
     25 C19         4.6890    0.0412    4.1862 C.ar      1 <0>        -0.1014
     26 C20         5.6129   -0.4535    5.0851 C.ar      1 <0>        -0.1747
     27 C21         5.2766   -1.5152    5.9125 C.ar      1 <0>         0.1184
     28 C22         4.0117   -2.0806    5.8372 C.ar      1 <0>        -0.1251
     29 C23         3.0851   -1.5830    4.9426 C.ar      1 <0>        -0.0764
     30 O4          6.1869   -2.0022    6.7972 O.3       1 <0>        -0.2562
     31 C24         7.3754   -1.3536    6.9114 C.ar      1 <0>         0.0805
     32 C25         7.4533   -0.1657    7.6243 C.ar      1 <0>        -0.1325
     33 C26         8.6628    0.4917    7.7390 C.ar      1 <0>        -0.1054
     34 C27         9.7952   -0.0329    7.1437 C.ar      1 <0>        -0.1169
     35 C28         9.7204   -1.2165    6.4328 C.ar      1 <0>        -0.1046
     36 C29         8.5147   -1.8810    6.3203 C.ar      1 <0>        -0.1217
     37 H1         -1.0101   -3.1826    2.8589 H         1 <0>         0.1215
     38 H2         -0.0673   -1.8835    2.0895 H         1 <0>         0.1010
     39 H3         -1.1679   -1.5064    3.4367 H         1 <0>         0.1667
     40 H4         -2.8118   -2.7093   -0.2083 H         1 <0>         0.1287
     41 H5         -1.0699   -2.9248    0.0875 H         1 <0>         0.1263
     42 H6         -0.2666   -4.6693    1.5681 H         1 <0>         0.1206
     43 H7         -0.6944   -6.8845    2.5469 H         1 <0>         0.1380
     44 H8         -4.8920   -6.3729    1.8164 H         1 <0>         0.1381
     45 H9         -4.4413   -4.1568    0.8502 H         1 <0>         0.1213
     46 H10        -0.9585   -0.4623    0.6052 H         1 <0>         0.1275
     47 H11        -2.6905   -0.4606    0.1949 H         1 <0>         0.1372
     48 H12        -2.1860    1.4810    1.6063 H         1 <0>         0.0922
     49 H13        -4.3647    0.3536    1.9312 H         1 <0>         0.0867
     50 H14        -3.6331   -0.7208    3.1482 H         1 <0>         0.0700
     51 H15        -3.8343    2.3213    3.3220 H         1 <0>         0.0676
     52 H16        -4.7945    1.1503    4.2596 H         1 <0>         0.0776
     53 H17        -2.8558    2.0283    5.5679 H         1 <0>         0.0773
     54 H18        -2.7391    0.2714    5.3027 H         1 <0>         0.0779
     55 H19        -1.3353    2.4249    3.6562 H         1 <0>         0.0425
     56 H20        -0.5643    1.3696    4.8643 H         1 <0>         0.0978
     57 H21         0.2023   -0.1593    1.6292 H         1 <0>         0.1068
     58 H22         0.3805    1.5050    2.2347 H         1 <0>         0.0836
     59 H23         2.7774    0.3081    2.3346 H         1 <0>         0.4100
     60 H24         4.9510    0.8674    3.5419 H         1 <0>         0.1291
     61 H25         6.5977   -0.0140    5.1440 H         1 <0>         0.1336
     62 H26         3.7505   -2.9070    6.4815 H         1 <0>         0.1399
     63 H27         2.0991   -2.0202    4.8871 H         1 <0>         0.1428
     64 H28         6.5689    0.2448    8.0889 H         1 <0>         0.1301
     65 H29         8.7239    1.4163    8.2937 H         1 <0>         0.1311
     66 H30        10.7397    0.4830    7.2339 H         1 <0>         0.1297
     67 H31        10.6064   -1.6238    5.9685 H         1 <0>         0.1328
     68 H32         8.4577   -2.8077    5.7686 H         1 <0>         0.1331
     69 H33        -2.9960   -1.9668    2.0836 H         1 <0>         0.4223
@<TRIPOS>BOND
     1    1    2 1
     2    1   37 1
     3    1   38 1
     4    1   39 1
     5    2    3 1
     6    2   13 1
     7    2   69 1
     8    3    4 1
     9    3   40 1
    10    3   41 1
    11    4    9 ar
    12    4    5 ar
    13    5    6 ar
    14    5   42 1
    15    6    7 ar
    16    6   43 1
    17    7    8 ar
    18    7   10 1
    19    8    9 ar
    20    8   44 1
    21    9   45 1
    22   10   11 2
    23   10   12 1
    24   13   14 1
    25   13   46 1
    26   13   47 1
    27   14   19 1
    28   14   15 1
    29   14   48 1
    30   15   16 1
    31   15   49 1
    32   15   50 1
    33   16   17 1
    34   16   51 1
    35   16   52 1
    36   17   18 1
    37   17   53 1
    38   17   54 1
    39   18   19 1
    40   18   55 1
    41   18   56 1
    42   19   20 1
    43   20   21 1
    44   20   57 1
    45   20   58 1
    46   21   22 2
    47   21   23 am
    48   23   24 1
    49   23   59 1
    50   24   29 ar
    51   24   25 ar
    52   25   26 ar
    53   25   60 1
    54   26   27 ar
    55   26   61 1
    56   27   28 ar
    57   27   30 1
    58   28   29 ar
    59   28   62 1
    60   29   63 1
    61   30   31 1
    62   31   36 ar
    63   31   32 ar
    64   32   33 ar
    65   32   64 1
    66   33   34 ar
    67   33   65 1
    68   34   35 ar
    69   34   66 1
    70   35   36 ar
    71   35   67 1
    72   36   68 1
@<TRIPOS>MOLECULE
CHEMBL479386
   69    72     0     0     0
SMALL
USER_CHARGES

@<TRIPOS>ATOM
      1 C1         -0.1110   -1.4062    1.1948 C.3       1 <0>        -0.0575
      2 N1          0.4047   -2.5600    0.4460 N.4       1 <0>        -0.3834
      3 C2          1.5159   -3.1690    1.1891 C.3       1 <0>         0.0462
      4 C3          1.0414   -3.5719    2.5615 C.ar      1 <0>        -0.1791
      5 C4          1.1280   -2.6741    3.6110 C.ar      1 <0>        -0.1140
      6 C5          0.6961   -3.0361    4.8699 C.ar      1 <0>        -0.0846
      7 C6          0.1698   -4.3125    5.0840 C.ar      1 <0>        -0.0906
      8 C7          0.0851   -5.2135    4.0195 C.ar      1 <0>        -0.0839
      9 C8          0.5161   -4.8359    2.7649 C.ar      1 <0>        -0.1088
     10 C9         -0.2938   -4.7073    6.4279 C.2       1 <0>         0.5093
     11 O1         -0.2179   -3.9165    7.3576 O.co2     1 <0>        -0.6729
     12 O2         -0.7539   -5.8252    6.6120 O.co2     1 <0>        -0.6723
     13 C10         0.8812   -2.1160   -0.8707 C.3       1 <0>         0.0391
     14 C11        -0.3132   -1.5590   -1.6775 C.3       1 <0>        -0.1330
     15 C12         0.2140   -0.7213   -2.8117 C.3       1 <0>        -0.1148
     16 C13         0.4119   -1.5250   -4.1095 C.3       1 <0>         0.0491
     17 N2          1.0149   -2.8575   -3.8873 N.3       1 <0>        -0.5340
     18 C14         2.0910   -2.8529   -2.9258 C.3       1 <0>         0.0726
     19 C15         1.5139   -3.2402   -1.5518 C.3       1 <0>        -0.1558
     20 C16         1.4456   -3.4587   -5.1566 C.3       1 <0>         0.0414
     21 C17         0.2381   -3.7495   -6.0100 C.2       1 <0>         0.5117
     22 O3         -0.8721   -3.4822   -5.6011 O.2       1 <0>        -0.5024
     23 N3          0.3917   -4.3066   -7.2276 N.am      1 <0>        -0.6698
     24 C18        -0.7310   -4.5785   -8.0202 C.ar      1 <0>         0.1099
     25 C19        -0.7118   -5.6449   -8.9092 C.ar      1 <0>        -0.1060
     26 C20        -1.8185   -5.9124   -9.6902 C.ar      1 <0>        -0.1726
     27 C21        -2.9498   -5.1158   -9.5868 C.ar      1 <0>         0.1119
     28 C22        -2.9696   -4.0499   -8.6987 C.ar      1 <0>        -0.1260
     29 C23        -1.8655   -3.7850   -7.9131 C.ar      1 <0>        -0.0852
     30 O4         -4.0391   -5.3793  -10.3564 O.3       1 <0>        -0.2582
     31 C24        -4.0213   -6.4998  -11.1249 C.ar      1 <0>         0.0811
     32 C25        -4.2503   -7.7413  -10.5490 C.ar      1 <0>        -0.1322
     33 C26        -4.2316   -8.8788  -11.3325 C.ar      1 <0>        -0.1049
     34 C27        -3.9844   -8.7811  -12.6894 C.ar      1 <0>        -0.1171
     35 C28        -3.7558   -7.5452  -13.2658 C.ar      1 <0>        -0.1050
     36 C29        -3.7796   -6.4039  -12.4879 C.ar      1 <0>        -0.1228
     37 H1          0.6326   -0.6092    1.1915 H         1 <0>         0.1179
     38 H2         -1.0281   -1.0493    0.7261 H         1 <0>         0.1204
     39 H3         -0.3201   -1.7038    2.2223 H         1 <0>         0.1332
     40 H4          1.8710   -4.0500    0.6543 H         1 <0>         0.1328
     41 H5          2.3285   -2.4486    1.2825 H         1 <0>         0.1283
     42 H6          1.5350   -1.6878    3.4440 H         1 <0>         0.1218
     43 H7          0.7649   -2.3346    5.6882 H         1 <0>         0.1383
     44 H8         -0.3206   -6.2018    4.1778 H         1 <0>         0.1383
     45 H9          0.4472   -5.5298    1.9402 H         1 <0>         0.1218
     46 H10         1.6169   -1.3235   -0.7337 H         1 <0>         0.1263
     47 H11        -0.9014   -2.3853   -2.0766 H         1 <0>         0.1030
     48 H12        -0.9371   -0.9442   -1.0288 H         1 <0>         0.0853
     49 H13        -0.4879    0.0900   -3.0048 H         1 <0>         0.0874
     50 H14         1.1709   -0.2916   -2.5156 H         1 <0>         0.0647
     51 H15        -0.5572   -1.6556   -4.5911 H         1 <0>         0.1009
     52 H16         1.0578   -0.9559   -4.7781 H         1 <0>         0.0387
     53 H17         2.8513   -3.5757   -3.2219 H         1 <0>         0.0880
     54 H18         2.5312   -1.8572   -2.8719 H         1 <0>         0.0569
     55 H19         2.3206   -3.6221   -0.9261 H         1 <0>         0.0898
     56 H20         0.7747   -4.0293   -1.6901 H         1 <0>         0.0979
     57 H21         2.1035   -2.7663   -5.6818 H         1 <0>         0.0728
     58 H22         1.9807   -4.3869   -4.9559 H         1 <0>         0.1117
     59 H23         1.2796   -4.5192   -7.5551 H         1 <0>         0.4110
     60 H24         0.1689   -6.2649   -8.9900 H         1 <0>         0.1297
     61 H25        -1.8035   -6.7417  -10.3819 H         1 <0>         0.1330
     62 H26        -3.8505   -3.4302   -8.6186 H         1 <0>         0.1370
     63 H27        -1.8826   -2.9581   -7.2186 H         1 <0>         0.1491
     64 H28        -4.4427   -7.8182   -9.4890 H         1 <0>         0.1303
     65 H29        -4.4098   -9.8453  -10.8848 H         1 <0>         0.1313
     66 H30        -3.9694   -9.6717  -13.3001 H         1 <0>         0.1297
     67 H31        -3.5626   -7.4717  -14.3258 H         1 <0>         0.1324
     68 H32        -3.6054   -5.4384  -12.9393 H         1 <0>         0.1322
     69 H33        -0.3317   -3.2392    0.3257 H         1 <0>         0.4228
@<TRIPOS>BOND
     1    1    2 1
     2    1   37 1
     3    1   38 1
     4    1   39 1
     5    2    3 1
     6    2   13 1
     7    2   69 1
     8    3    4 1
     9    3   40 1
    10    3   41 1
    11    4    9 ar
    12    4    5 ar
    13    5    6 ar
    14    5   42 1
    15    6    7 ar
    16    6   43 1
    17    7    8 ar
    18    7   10 1
    19    8    9 ar
    20    8   44 1
    21    9   45 1
    22   10   11 2
    23   10   12 1
    24   13   19 1
    25   13   14 1
    26   13   46 1
    27   14   15 1
    28   14   47 1
    29   14   48 1
    30   15   16 1
    31   15   49 1
    32   15   50 1
    33   16   17 1
    34   16   51 1
    35   16   52 1
    36   17   18 1
    37   17   20 1
    38   18   19 1
    39   18   53 1
    40   18   54 1
    41   19   55 1
    42   19   56 1
    43   20   21 1
    44   20   57 1
    45   20   58 1
    46   21   22 2
    47   21   23 am
    48   23   24 1
    49   23   59 1
    50   24   29 ar
    51   24   25 ar
    52   25   26 ar
    53   25   60 1
    54   26   27 ar
    55   26   61 1
    56   27   28 ar
    57   27   30 1
    58   28   29 ar
    59   28   62 1
    60   29   63 1
    61   30   31 1
    62   31   36 ar
    63   31   32 ar
    64   32   33 ar
    65   32   64 1
    66   33   34 ar
    67   33   65 1
    68   34   35 ar
    69   34   66 1
    70   35   36 ar
    71   35   67 1
    72   36   68 1
@<TRIPOS>MOLECULE
CHEMBL479386__1
   69    72     0     0     0
SMALL
USER_CHARGES

@<TRIPOS>ATOM
      1 C1         -1.9924    1.2828   -1.7911 C.3       1 <0>         0.0082
      2 N1         -1.6707   -0.1030   -1.4248 N.3       1 <0>        -0.5229
      3 C2         -1.4348   -0.2244    0.0201 C.3       1 <0>         0.1047
      4 C3         -2.7157    0.0548    0.7633 C.ar      1 <0>        -0.1077
      5 C4         -3.0198    1.3484    1.1495 C.ar      1 <0>        -0.1316
      6 C5         -4.1900    1.6113    1.8304 C.ar      1 <0>        -0.0868
      7 C6         -5.0696    0.5678    2.1297 C.ar      1 <0>        -0.1216
      8 C7         -4.7562   -0.7357    1.7362 C.ar      1 <0>        -0.0868
      9 C8         -3.5849   -0.9828    1.0513 C.ar      1 <0>        -0.1146
     10 C9         -6.3232    0.8410    2.8582 C.2       1 <0>         0.5149
     11 O1         -6.5945    1.9829    3.2016 O.co2     1 <0>        -0.6843
     12 O2         -7.0910   -0.0745    3.1186 O.co2     1 <0>        -0.6834
     13 C10        -0.5172   -0.5954   -2.1897 C.3       1 <0>         0.0733
     14 C11         0.7142    0.2923   -1.8811 C.3       1 <0>        -0.1760
     15 C12         1.9569   -0.4253   -2.3362 C.3       1 <0>        -0.1315
     16 C13         2.3690   -0.0841   -3.7795 C.3       1 <0>        -0.0156
     17 N2          1.2313   -0.0326   -4.7226 N.4       1 <0>        -0.3663
     18 C14         0.2958   -1.1077   -4.4973 C.3       1 <0>        -0.0120
     19 C15        -0.8386   -0.5680   -3.6112 C.3       1 <0>        -0.1429
     20 C16         1.7444   -0.1253   -6.0960 C.3       1 <0>        -0.0319
     21 C17         2.5796    1.0908   -6.4033 C.2       1 <0>         0.4994
     22 O3          2.7325    1.9502   -5.5612 O.2       1 <0>        -0.5095
     23 N3          3.1568    1.2234   -7.6140 N.am      1 <0>        -0.6390
     24 C18         3.7898    2.4243   -7.9605 C.ar      1 <0>         0.0853
     25 C19         3.8903    2.7967   -9.2944 C.ar      1 <0>        -0.0949
     26 C20         4.5143    3.9803   -9.6353 C.ar      1 <0>        -0.1723
     27 C21         5.0408    4.7975   -8.6452 C.ar      1 <0>         0.1260
     28 C22         4.9406    4.4258   -7.3122 C.ar      1 <0>        -0.1278
     29 C23         4.3118    3.2452   -6.9697 C.ar      1 <0>        -0.0883
     30 O4          5.6555    5.9625   -8.9815 O.3       1 <0>        -0.2545
     31 C24         5.5716    6.3787  -10.2722 C.ar      1 <0>         0.0753
     32 C25         4.4030    6.9631  -10.7395 C.ar      1 <0>        -0.1314
     33 C26         4.3203    7.3852  -12.0522 C.ar      1 <0>        -0.1042
     34 C27         5.4005    7.2254  -12.9004 C.ar      1 <0>        -0.1140
     35 C28         6.5661    6.6433  -12.4374 C.ar      1 <0>        -0.1041
     36 C29         6.6563    6.2251  -11.1239 C.ar      1 <0>        -0.1214
     37 H1         -1.1619    1.9333   -1.5166 H         1 <0>         0.0296
     38 H2         -2.1623    1.3444   -2.8660 H         1 <0>         0.0637
     39 H3         -2.8916    1.5989   -1.2624 H         1 <0>         0.0882
     40 H4         -1.0946   -1.2342    0.2491 H         1 <0>         0.0807
     41 H5         -0.6737    0.4935    0.3256 H         1 <0>         0.0437
     42 H6         -2.3389    2.1540    0.9175 H         1 <0>         0.1072
     43 H7         -4.4258    2.6213    2.1318 H         1 <0>         0.1263
     44 H8         -5.4315   -1.5471    1.9642 H         1 <0>         0.1272
     45 H9         -3.3434   -1.9892    0.7427 H         1 <0>         0.1122
     46 H10        -0.3017   -1.6214   -1.8912 H         1 <0>         0.0956
     47 H11         0.6241    1.2395   -2.4127 H         1 <0>         0.0705
     48 H12         0.7715    0.4773   -0.8084 H         1 <0>         0.0961
     49 H13         2.7766   -0.1621   -1.6677 H         1 <0>         0.1063
     50 H14         1.7848   -1.4994   -2.2670 H         1 <0>         0.0862
     51 H15         2.8668    0.8856   -3.7801 H         1 <0>         0.1424
     52 H16         3.0767   -0.8365   -4.1273 H         1 <0>         0.1226
     53 H17        -0.1104   -1.4488   -5.4495 H         1 <0>         0.1371
     54 H18         0.7973   -1.9333   -3.9924 H         1 <0>         0.1372
     55 H19        -1.7317   -1.1696   -3.7802 H         1 <0>         0.1230
     56 H20        -1.0517    0.4605   -3.9025 H         1 <0>         0.0859
     57 H21         2.3569   -1.0214   -6.1953 H         1 <0>         0.1619
     58 H22         0.9083   -0.1776   -6.7934 H         1 <0>         0.1643
     59 H23         3.1339    0.4875   -8.2455 H         1 <0>         0.4198
     60 H24         3.4808    2.1605  -10.0651 H         1 <0>         0.1334
     61 H25         4.5929    4.2699  -10.6727 H         1 <0>         0.1376
     62 H26         5.3506    5.0623   -6.5420 H         1 <0>         0.1414
     63 H27         4.2299    2.9582   -5.9318 H         1 <0>         0.1613
     64 H28         3.5588    7.0875  -10.0776 H         1 <0>         0.1302
     65 H29         3.4110    7.8402  -12.4163 H         1 <0>         0.1327
     66 H30         5.3336    7.5555  -13.9266 H         1 <0>         0.1314
     67 H31         7.4083    6.5193  -13.1021 H         1 <0>         0.1339
     68 H32         7.5684    5.7745  -10.7615 H         1 <0>         0.1330
     69 H33         0.7522    0.8483   -4.6113 H         1 <0>         0.4277
@<TRIPOS>BOND
     1    1    2 1
     2    1   37 1
     3    1   38 1
     4    1   39 1
     5    2    3 1
     6    2   13 1
     7    3    4 1
     8    3   40 1
     9    3   41 1
    10    4    9 ar
    11    4    5 ar
    12    5    6 ar
    13    5   42 1
    14    6    7 ar
    15    6   43 1
    16    7    8 ar
    17    7   10 1
    18    8    9 ar
    19    8   44 1
    20    9   45 1
    21   10   11 2
    22   10   12 1
    23   13   19 1
    24   13   14 1
    25   13   46 1
    26   14   15 1
    27   14   47 1
    28   14   48 1
    29   15   16 1
    30   15   49 1
    31   15   50 1
    32   16   17 1
    33   16   51 1
    34   16   52 1
    35   17   18 1
    36   17   20 1
    37   17   69 1
    38   18   19 1
    39   18   53 1
    40   18   54 1
    41   19   55 1
    42   19   56 1
    43   20   21 1
    44   20   57 1
    45   20   58 1
    46   21   22 2
    47   21   23 am
    48   23   24 1
    49   23   59 1
    50   24   29 ar
    51   24   25 ar
    52   25   26 ar
    53   25   60 1
    54   26   27 ar
    55   26   61 1
    56   27   28 ar
    57   27   30 1
    58   28   29 ar
    59   28   62 1
    60   29   63 1
    61   30   31 1
    62   31   36 ar
    63   31   32 ar
    64   32   33 ar
    65   32   64 1
    66   33   34 ar
    67   33   65 1
    68   34   35 ar
    69   34   66 1
    70   35   36 ar
    71   35   67 1
    72   36   68 1
@<TRIPOS>MOLECULE
CHEMBL479386__2
   69    72     0     0     0
SMALL
USER_CHARGES

@<TRIPOS>ATOM
      1 C1         -1.7760    1.9942   -1.0340 C.3       1 <0>        -0.0555
      2 N1         -0.4597    2.4684   -1.4818 N.4       1 <0>        -0.3849
      3 C2         -0.6186    3.7276   -2.2215 C.3       1 <0>         0.0501
      4 C3         -1.2985    4.7448   -1.3416 C.ar      1 <0>        -0.1786
      5 C4         -2.6793    4.8361   -1.3348 C.ar      1 <0>        -0.1118
      6 C5         -3.3084    5.7648   -0.5324 C.ar      1 <0>        -0.0854
      7 C6         -2.5481    6.6144    0.2752 C.ar      1 <0>        -0.0914
      8 C7         -1.1544    6.5162    0.2635 C.ar      1 <0>        -0.0845
      9 C8         -0.5392    5.5791   -0.5401 C.ar      1 <0>        -0.1096
     10 C9         -3.2137    7.6109    1.1359 C.2       1 <0>         0.5093
     11 O1         -4.4337    7.6946    1.1436 O.co2     1 <0>        -0.6733
     12 O2         -2.5453    8.3531    1.8416 O.co2     1 <0>        -0.6727
     13 C10         0.1522    1.4601   -2.3574 C.3       1 <0>         0.0375
     14 C11         0.5116    0.2552   -1.5308 C.3       1 <0>        -0.1421
     15 C12         1.7905   -0.3867   -2.1137 C.3       1 <0>        -0.1073
     16 C13         1.5028   -1.1591   -3.3171 C.3       1 <0>         0.0478
     17 N2          0.9404   -0.3362   -4.4085 N.3       1 <0>        -0.5181
     18 C14        -0.4812   -0.1861   -4.2137 C.3       1 <0>         0.0566
     19 C15        -0.8294    1.1355   -3.5027 C.3       1 <0>        -0.1317
     20 C16         1.2322   -0.9305   -5.7199 C.3       1 <0>         0.0372
     21 C17         2.7178   -0.8908   -5.9700 C.2       1 <0>         0.5120
     22 O3          3.4604   -0.4144   -5.1377 O.2       1 <0>        -0.5023
     23 N3          3.2212   -1.3848   -7.1185 N.am      1 <0>        -0.6702
     24 C18         4.6015   -1.3411   -7.3542 C.ar      1 <0>         0.1089
     25 C19         5.0806   -1.1896   -8.6487 C.ar      1 <0>        -0.1044
     26 C20         6.4411   -1.1466   -8.8804 C.ar      1 <0>        -0.1729
     27 C21         7.3295   -1.2549   -7.8201 C.ar      1 <0>         0.1133
     28 C22         6.8513   -1.4063   -6.5265 C.ar      1 <0>        -0.1265
     29 C23         5.4910   -1.4437   -6.2929 C.ar      1 <0>        -0.0824
     30 O4          8.6689   -1.2130   -8.0490 O.3       1 <0>        -0.2581
     31 C24         9.0923   -0.9356   -9.3100 C.ar      1 <0>         0.0807
     32 C25         9.0785    0.3713   -9.7761 C.ar      1 <0>        -0.1318
     33 C26         9.5093    0.6506  -11.0584 C.ar      1 <0>        -0.1050
     34 C27         9.9537   -0.3709  -11.8776 C.ar      1 <0>        -0.1168
     35 C28         9.9685   -1.6741  -11.4157 C.ar      1 <0>        -0.1049
     36 C29         9.5445   -1.9580  -10.1320 C.ar      1 <0>        -0.1228
     37 H1         -2.4657    1.9860   -1.8781 H         1 <0>         0.1211
     38 H2         -1.6813    0.9853   -0.6323 H         1 <0>         0.1175
     39 H3         -2.1577    2.6593   -0.2594 H         1 <0>         0.1276
     40 H4          0.3616    4.1010   -2.5180 H         1 <0>         0.1296
     41 H5         -1.2249    3.5529   -3.1103 H         1 <0>         0.1285
     42 H6         -3.2657    4.1787   -1.9596 H         1 <0>         0.1199
     43 H7         -4.3861    5.8355   -0.5286 H         1 <0>         0.1375
     44 H8         -0.5604    7.1697    0.8852 H         1 <0>         0.1378
     45 H9          0.5378    5.4991   -0.5469 H         1 <0>         0.1216
     46 H10         1.0650    1.8751   -2.7848 H         1 <0>         0.1398
     47 H11         0.6933    0.5603   -0.5003 H         1 <0>         0.0846
     48 H12        -0.3054   -0.4656   -1.5616 H         1 <0>         0.0881
     49 H13         2.5041    0.4002   -2.3581 H         1 <0>         0.0843
     50 H14         2.2312   -1.0451   -1.3652 H         1 <0>         0.0841
     51 H15         2.4257   -1.6221   -3.6663 H         1 <0>         0.0860
     52 H16         0.7905   -1.9456   -3.0676 H         1 <0>         0.0414
     53 H17        -0.9763   -0.2074   -5.1846 H         1 <0>         0.0833
     54 H18        -0.8466   -1.0189   -3.6129 H         1 <0>         0.0567
     55 H19        -1.8373    1.0622   -3.0941 H         1 <0>         0.0895
     56 H20        -0.8033    1.9462   -4.2308 H         1 <0>         0.0896
     57 H21         0.8888   -1.9649   -5.7346 H         1 <0>         0.0740
     58 H22         0.7177   -0.3657   -6.4973 H         1 <0>         0.1125
     59 H23         2.6279   -1.7705   -7.7818 H         1 <0>         0.4112
     60 H24         4.3892   -1.1057   -9.4741 H         1 <0>         0.1299
     61 H25         6.8138   -1.0291   -9.8872 H         1 <0>         0.1331
     62 H26         7.5433   -1.4905   -5.7015 H         1 <0>         0.1372
     63 H27         5.1189   -1.5571   -5.2854 H         1 <0>         0.1463
     64 H28         8.7308    1.1694   -9.1369 H         1 <0>         0.1302
     65 H29         9.4988    1.6676  -11.4217 H         1 <0>         0.1314
     66 H30        10.2895   -0.1505  -12.8801 H         1 <0>         0.1298
     67 H31        10.3157   -2.4701  -12.0576 H         1 <0>         0.1325
     68 H32         9.5604   -2.9754   -9.7701 H         1 <0>         0.1323
     69 H33         0.1331    2.6219   -0.6799 H         1 <0>         0.4226
@<TRIPOS>BOND
     1    1    2 1
     2    1   37 1
     3    1   38 1
     4    1   39 1
     5    2    3 1
     6    2   13 1
     7    2   69 1
     8    3    4 1
     9    3   40 1
    10    3   41 1
    11    4    9 ar
    12    4    5 ar
    13    5    6 ar
    14    5   42 1
    15    6    7 ar
    16    6   43 1
    17    7    8 ar
    18    7   10 1
    19    8    9 ar
    20    8   44 1
    21    9   45 1
    22   10   11 2
    23   10   12 1
    24   13   19 1
    25   13   14 1
    26   13   46 1
    27   14   15 1
    28   14   47 1
    29   14   48 1
    30   15   16 1
    31   15   49 1
    32   15   50 1
    33   16   17 1
    34   16   51 1
    35   16   52 1
    36   17   18 1
    37   17   20 1
    38   18   19 1
    39   18   53 1
    40   18   54 1
    41   19   55 1
    42   19   56 1
    43   20   21 1
    44   20   57 1
    45   20   58 1
    46   21   22 2
    47   21   23 am
    48   23   24 1
    49   23   59 1
    50   24   29 ar
    51   24   25 ar
    52   25   26 ar
    53   25   60 1
    54   26   27 ar
    55   26   61 1
    56   27   28 ar
    57   27   30 1
    58   28   29 ar
    59   28   62 1
    60   29   63 1
    61   30   31 1
    62   31   36 ar
    63   31   32 ar
    64   32   33 ar
    65   32   64 1
    66   33   34 ar
    67   33   65 1
    68   34   35 ar
    69   34   66 1
    70   35   36 ar
    71   35   67 1
    72   36   68 1
@<TRIPOS>MOLECULE
CHEMBL479386__3
   69    72     0     0     0
SMALL
USER_CHARGES

@<TRIPOS>ATOM
      1 C1         -0.9830    2.1329   -1.3071 C.3       1 <0>         0.0134
      2 N1          0.4769    2.2955   -1.3186 N.3       1 <0>        -0.5189
      3 C2          0.8544    3.6275   -1.8098 C.3       1 <0>         0.1018
      4 C3          0.5976    4.6510   -0.7339 C.ar      1 <0>        -0.1060
      5 C4         -0.6350    5.2756   -0.6578 C.ar      1 <0>        -0.1299
      6 C5         -0.8770    6.2136    0.3239 C.ar      1 <0>        -0.0864
      7 C6          0.1257    6.5324    1.2431 C.ar      1 <0>        -0.1214
      8 C7          1.3675    5.8975    1.1604 C.ar      1 <0>        -0.0867
      9 C8          1.5935    4.9577    0.1766 C.ar      1 <0>        -0.1157
     10 C9         -0.1254    7.5352    2.2959 C.2       1 <0>         0.5148
     11 O1         -1.2133    8.0895    2.3653 O.co2     1 <0>        -0.6841
     12 O2          0.7543    7.8120    3.0989 O.co2     1 <0>        -0.6834
     13 C10         1.1180    1.2399   -2.1141 C.3       1 <0>         0.0698
     14 C11         0.9674   -0.0713   -1.3881 C.3       1 <0>        -0.1273
     15 C12         2.2003   -0.9601   -1.6811 C.3       1 <0>        -0.1489
     16 C13         2.1366   -1.5201   -3.0279 C.3       1 <0>        -0.0037
     17 N2          2.1439   -0.5029   -4.0937 N.4       1 <0>        -0.3663
     18 C14         0.7806   -0.0674   -4.2931 C.3       1 <0>        -0.0107
     19 C15         0.4915    1.2323   -3.5223 C.3       1 <0>        -0.1894
     20 C16         2.6670   -1.0869   -5.3360 C.3       1 <0>        -0.0274
     21 C17         4.1125   -1.4664   -5.1429 C.2       1 <0>         0.4980
     22 O3          4.6538   -1.2698   -4.0754 O.2       1 <0>        -0.5053
     23 N3          4.8039   -2.0243   -6.1564 N.am      1 <0>        -0.6408
     24 C18         6.1874   -2.2125   -6.0406 C.ar      1 <0>         0.0842
     25 C19         6.9888   -2.1891   -7.1743 C.ar      1 <0>        -0.0935
     26 C20         8.3522   -2.3746   -7.0596 C.ar      1 <0>        -0.1738
     27 C21         8.9215   -2.5843   -5.8117 C.ar      1 <0>         0.1274
     28 C22         8.1212   -2.6078   -4.6786 C.ar      1 <0>        -0.1281
     29 C23         6.7584   -2.4167   -4.7915 C.ar      1 <0>        -0.0833
     30 O4         10.2639   -2.7674   -5.6994 O.3       1 <0>        -0.2542
     31 C24        11.0268   -2.5923   -6.8101 C.ar      1 <0>         0.0750
     32 C25        11.3520   -1.3120   -7.2352 C.ar      1 <0>        -0.1304
     33 C26        12.1276   -1.1368   -8.3647 C.ar      1 <0>        -0.1045
     34 C27        12.5795   -2.2357   -9.0719 C.ar      1 <0>        -0.1138
     35 C28        12.2569   -3.5126   -8.6505 C.ar      1 <0>        -0.1045
     36 C29        11.4867   -3.6935   -7.5181 C.ar      1 <0>        -0.1214
     37 H1         -1.3881    2.4185   -2.2779 H         1 <0>         0.0312
     38 H2         -1.2310    1.0914   -1.1021 H         1 <0>         0.0680
     39 H3         -1.4132    2.7680   -0.5327 H         1 <0>         0.0851
     40 H4          1.9127    3.6322   -2.0705 H         1 <0>         0.0759
     41 H5          0.2618    3.8709   -2.6917 H         1 <0>         0.0434
     42 H6         -1.4091    5.0281   -1.3690 H         1 <0>         0.1071
     43 H7         -1.8392    6.7007    0.3817 H         1 <0>         0.1264
     44 H8          2.1472    6.1390    1.8676 H         1 <0>         0.1269
     45 H9          2.5515    4.4629    0.1141 H         1 <0>         0.1104
     46 H10         2.1801    1.4675   -2.2049 H         1 <0>         0.0809
     47 H11         0.8973    0.1120   -0.3160 H         1 <0>         0.1066
     48 H12         0.0646   -0.5762   -1.7318 H         1 <0>         0.0730
     49 H13         3.1049   -0.3594   -1.5861 H         1 <0>         0.0932
     50 H14         2.2348   -1.7738   -0.9568 H         1 <0>         0.1180
     51 H15         2.9916   -2.1808   -3.1711 H         1 <0>         0.1301
     52 H16         1.2249   -2.1109   -3.1166 H         1 <0>         0.1246
     53 H17         0.6121    0.1032   -5.3564 H         1 <0>         0.1289
     54 H18         0.1024   -0.8468   -3.9458 H         1 <0>         0.1324
     55 H19        -0.5877    1.3531   -3.4281 H         1 <0>         0.1162
     56 H20         0.8896    2.0738   -4.0892 H         1 <0>         0.0900
     57 H21         2.0891   -1.9751   -5.5914 H         1 <0>         0.1622
     58 H22         2.5873   -0.3575   -6.1421 H         1 <0>         0.1630
     59 H23         4.3437   -2.2956   -6.9660 H         1 <0>         0.4193
     60 H24         6.5457   -2.0262   -8.1457 H         1 <0>         0.1330
     61 H25         8.9756   -2.3568   -7.9413 H         1 <0>         0.1375
     62 H26         8.5648   -2.7711   -3.7075 H         1 <0>         0.1418
     63 H27         6.1361   -2.4305   -3.9089 H         1 <0>         0.1576
     64 H28        10.9987   -0.4533   -6.6836 H         1 <0>         0.1307
     65 H29        12.3810   -0.1406   -8.6960 H         1 <0>         0.1327
     66 H30        13.1852   -2.0965   -9.9552 H         1 <0>         0.1313
     67 H31        12.6108   -4.3692   -9.2048 H         1 <0>         0.1338
     68 H32        11.2387   -4.6911   -7.1868 H         1 <0>         0.1329
     69 H33         2.7161    0.2802   -3.8155 H         1 <0>         0.4310
@<TRIPOS>BOND
     1    1    2 1
     2    1   37 1
     3    1   38 1
     4    1   39 1
     5    2    3 1
     6    2   13 1
     7    3    4 1
     8    3   40 1
     9    3   41 1
    10    4    9 ar
    11    4    5 ar
    12    5    6 ar
    13    5   42 1
    14    6    7 ar
    15    6   43 1
    16    7    8 ar
    17    7   10 1
    18    8    9 ar
    19    8   44 1
    20    9   45 1
    21   10   11 2
    22   10   12 1
    23   13   19 1
    24   13   14 1
    25   13   46 1
    26   14   15 1
    27   14   47 1
    28   14   48 1
    29   15   16 1
    30   15   49 1
    31   15   50 1
    32   16   17 1
    33   16   51 1
    34   16   52 1
    35   17   18 1
    36   17   20 1
    37   17   69 1
    38   18   19 1
    39   18   53 1
    40   18   54 1
    41   19   55 1
    42   19   56 1
    43   20   21 1
    44   20   57 1
    45   20   58 1
    46   21   22 2
    47   21   23 am
    48   23   24 1
    49   23   59 1
    50   24   29 ar
    51   24   25 ar
    52   25   26 ar
    53   25   60 1
    54   26   27 ar
    55   26   61 1
    56   27   28 ar
    57   27   30 1
    58   28   29 ar
    59   28   62 1
    60   29   63 1
    61   30   31 1
    62   31   36 ar
    63   31   32 ar
    64   32   33 ar
    65   32   64 1
    66   33   34 ar
    67   33   65 1
    68   34   35 ar
    69   34   66 1
    70   35   36 ar
    71   35   67 1
    72   36   68 1
@<TRIPOS>MOLECULE
CHEMBL349189
   45    47     0     0     0
SMALL
USER_CHARGES

@<TRIPOS>ATOM
      1 C1         -0.0167    1.3781    0.0096 C.ar      1 <0>        -0.0982
      2 C2          1.1709    2.0855    0.0021 C.ar      1 <0>        -0.1176
      3 C3          2.3773    1.4107   -0.0130 C.ar      1 <0>        -0.0858
      4 C4          2.3960    0.0285   -0.0201 C.ar      1 <0>        -0.1541
      5 C5          1.2084   -0.6789   -0.0117 C.ar      1 <0>        -0.0866
      6 C6          0.0021   -0.0041    0.0020 C.ar      1 <0>        -0.1184
      7 C7          3.7112   -0.7071   -0.0376 C.3       1 <0>         0.3927
      8 C8          4.1644   -0.9594    1.3773 C.ar      1 <0>        -0.1665
      9 C9          4.9522   -0.0267    2.0264 C.ar      1 <0>        -0.0419
     10 C10         5.3694   -0.2559    3.3232 C.ar      1 <0>        -0.1401
     11 C11         4.9969   -1.4228    3.9745 C.ar      1 <0>         0.1313
     12 C12         4.2060   -2.3568    3.3213 C.ar      1 <0>        -0.2022
     13 C13         3.7871   -2.1206    2.0262 C.ar      1 <0>        -0.0418
     14 O1          5.4064   -1.6507    5.2502 O.3       1 <0>        -0.3255
     15 C14         4.9849   -2.8733    5.8582 C.3       1 <0>         0.0252
     16 C15         5.5391   -2.9523    7.2821 C.3       1 <0>         0.0038
     17 N1          4.9437   -1.8865    8.0991 N.4       1 <0>        -0.3962
     18 C16         3.4986   -2.1534    8.3152 C.3       1 <0>        -0.0108
     19 C17         3.1718   -1.3283    9.5852 C.3       1 <0>        -0.1447
     20 C18         4.4470   -1.4946   10.4432 C.3       1 <0>        -0.1451
     21 C19         5.5569   -1.8728    9.4450 C.3       1 <0>        -0.0086
     22 F1          3.5536   -1.9284   -0.7016 F         1 <0>        -0.1844
     23 F2          4.6689    0.0654   -0.7033 F         1 <0>        -0.1834
     24 H1         -0.9591    1.9053    0.0259 H         1 <0>         0.1308
     25 H2          1.1563    3.1654    0.0076 H         1 <0>         0.1325
     26 H3          3.3051    1.9634   -0.0196 H         1 <0>         0.1307
     27 H4          1.2231   -1.7588   -0.0176 H         1 <0>         0.1296
     28 H5         -0.9258   -0.5567    0.0082 H         1 <0>         0.1319
     29 H6          5.2420    0.8815    1.5189 H         1 <0>         0.1444
     30 H7          5.9853    0.4726    3.8295 H         1 <0>         0.1415
     31 H8          3.9147   -3.2660    3.8262 H         1 <0>         0.1351
     32 H9          3.1678   -2.8454    1.5188 H         1 <0>         0.1396
     33 H10         3.8958   -2.9068    5.8898 H         1 <0>         0.0872
     34 H11         5.3576   -3.7160    5.2759 H         1 <0>         0.1106
     35 H12         5.2928   -3.9221    7.7145 H         1 <0>         0.1498
     36 H13         6.6219   -2.8297    7.2579 H         1 <0>         0.1422
     37 H14         2.9115   -1.8024    7.4666 H         1 <0>         0.1331
     38 H15         3.3256   -3.2152    8.4911 H         1 <0>         0.1352
     39 H16         3.0103   -0.2802    9.3332 H         1 <0>         0.0984
     40 H17         2.3039   -1.7404   10.1001 H         1 <0>         0.1176
     41 H18         4.6913   -0.5574   10.9434 H         1 <0>         0.1059
     42 H19         4.3093   -2.2903   11.1752 H         1 <0>         0.1047
     43 H20         5.9503   -2.8609    9.6839 H         1 <0>         0.1317
     44 H21         6.3566   -1.1331    9.4811 H         1 <0>         0.1332
     45 H22         5.0699   -0.9918    7.6501 H         1 <0>         0.4334
@<TRIPOS>BOND
     1    1    6 ar
     2    1    2 ar
     3    1   24 1
     4    2    3 ar
     5    2   25 1
     6    3    4 ar
     7    3   26 1
     8    4    5 ar
     9    4    7 1
    10    5    6 ar
    11    5   27 1
    12    6   28 1
    13    7    8 1
    14    7   22 1
    15    7   23 1
    16    8   13 ar
    17    8    9 ar
    18    9   10 ar
    19    9   29 1
    20   10   11 ar
    21   10   30 1
    22   11   12 ar
    23   11   14 1
    24   12   13 ar
    25   12   31 1
    26   13   32 1
    27   14   15 1
    28   15   16 1
    29   15   33 1
    30   15   34 1
    31   16   17 1
    32   16   35 1
    33   16   36 1
    34   17   21 1
    35   17   18 1
    36   17   45 1
    37   18   19 1
    38   18   37 1
    39   18   38 1
    40   19   20 1
    41   19   39 1
    42   19   40 1
    43   20   21 1
    44   20   41 1
    45   20   42 1
    46   21   43 1
    47   21   44 1
@<TRIPOS>MOLECULE
CHEMBL518118
   46    47     0     0     0
SMALL
USER_CHARGES

@<TRIPOS>ATOM
      1 C1          0.0217    1.3706    0.6990 C.ar      1 <0>        -0.0837
      2 C2          1.1897    2.0878    0.5063 C.ar      1 <0>        -0.1297
      3 C3          2.3867    1.4275    0.3266 C.ar      1 <0>        -0.0572
      4 C4          2.4187    0.0294    0.3399 C.ar      1 <0>        -0.1679
      5 C5          1.2342   -0.6881    0.5357 C.ar      1 <0>        -0.0761
      6 C6          0.0451   -0.0131    0.7134 C.ar      1 <0>        -0.1298
      7 C7          3.6920   -0.6832    0.1485 C.2       1 <0>         0.3983
      8 O1          4.7170   -0.0581   -0.0214 O.2       1 <0>        -0.4240
      9 C8          3.7220   -2.1899    0.1635 C.3       1 <0>         0.0130
     10 O2          5.0620   -2.6417   -0.0419 O.3       1 <0>        -0.2946
     11 C9          5.2648   -3.9861   -0.0563 C.ar      1 <0>         0.1179
     12 C10         4.1940   -4.8506    0.1182 C.ar      1 <0>        -0.1894
     13 C11         4.3992   -6.2161    0.1037 C.ar      1 <0>        -0.0764
     14 C12         5.6776   -6.7237   -0.0855 C.ar      1 <0>         0.1026
     15 C13         6.7489   -5.8579   -0.2600 C.ar      1 <0>        -0.1011
     16 C14         6.5414   -4.4927   -0.2510 C.ar      1 <0>        -0.1280
     17 N1          5.8866   -8.1091   -0.0998 N.am      1 <0>        -0.6708
     18 C15         4.9369   -8.9288   -0.5923 C.2       1 <0>         0.5106
     19 O3          3.9434   -8.4638   -1.1101 O.2       1 <0>        -0.5078
     20 C16         5.1093  -10.4230   -0.4997 C.3       1 <0>        -0.1529
     21 C17         3.8986  -11.1160   -1.1282 C.3       1 <0>        -0.1126
     22 C18         4.0737  -12.6330   -1.0342 C.3       1 <0>        -0.0506
     23 H1          4.2452  -12.9153    0.0045 H         1 <0>         0.1357
     24 C19         2.8288  -13.3147   -1.5409 C.2       1 <0>         0.4904
     25 O4          2.8547  -13.9254   -2.5959 O.co2     1 <0>        -0.6719
     26 O5          1.7959  -13.2555   -0.8960 O.co2     1 <0>        -0.6325
     27 N2          5.2239  -13.0447   -1.8499 N.4       1 <0>        -0.6143
     28 H2         -0.9121    1.8936    0.8433 H         1 <0>         0.1305
     29 H3          1.1633    3.1674    0.4963 H         1 <0>         0.1326
     30 H4          3.2972    1.9884    0.1757 H         1 <0>         0.1361
     31 H5          1.2509   -1.7679    0.5469 H         1 <0>         0.1312
     32 H6         -0.8705   -0.5657    0.8646 H         1 <0>         0.1326
     33 H7          3.3604   -2.5509    1.1263 H         1 <0>         0.1000
     34 H8          3.0831   -2.5739   -0.6318 H         1 <0>         0.1003
     35 H9          3.1997   -4.4557    0.2656 H         1 <0>         0.1328
     36 H10         3.5655   -6.8890    0.2399 H         1 <0>         0.1389
     37 H11         7.7436   -6.2521   -0.4068 H         1 <0>         0.1341
     38 H12         7.3739   -3.8191   -0.3911 H         1 <0>         0.1385
     39 H13         6.7148   -8.4782    0.2448 H         1 <0>         0.4106
     40 H14         6.0136  -10.7181   -1.0319 H         1 <0>         0.0872
     41 H15         5.1921  -10.7150    0.5472 H         1 <0>         0.1105
     42 H16         2.9943  -10.8209   -0.5961 H         1 <0>         0.1193
     43 H17         3.8158  -10.8240   -2.1751 H         1 <0>         0.0911
     44 H18         5.0651  -12.7834   -2.8115 H         1 <0>         0.4329
     45 H19         6.0574  -12.5883   -1.5106 H         1 <0>         0.4101
     46 H20         5.3394  -14.0452   -1.7879 H         1 <0>         0.4335
@<TRIPOS>BOND
     1    1    6 ar
     2    1    2 ar
     3    1   28 1
     4    2    3 ar
     5    2   29 1
     6    3    4 ar
     7    3   30 1
     8    4    5 ar
     9    4    7 1
    10    5    6 ar
    11    5   31 1
    12    6   32 1
    13    7    8 2
    14    7    9 1
    15    9   10 1
    16    9   33 1
    17    9   34 1
    18   10   11 1
    19   11   16 ar
    20   11   12 ar
    21   12   13 ar
    22   12   35 1
    23   13   14 ar
    24   13   36 1
    25   14   15 ar
    26   14   17 1
    27   15   16 ar
    28   15   37 1
    29   16   38 1
    30   17   18 am
    31   17   39 1
    32   18   19 2
    33   18   20 1
    34   20   21 1
    35   20   40 1
    36   20   41 1
    37   21   22 1
    38   21   42 1
    39   21   43 1
    40   22   23 1
    41   22   24 1
    42   22   27 1
    43   24   25 2
    44   24   26 1
    45   27   44 1
    46   27   45 1
    47   27   46 1
@<TRIPOS>MOLECULE
CHEMBL162788
   54    56     0     0     0
SMALL
USER_CHARGES

@<TRIPOS>ATOM
      1 C1          1.6523   -1.8791   -0.1188 C.3       1 <0>        -0.1776
      2 C2          0.8273   -1.7205    1.1599 C.3       1 <0>         0.0126
      3 C3         -0.5094   -2.4474    0.9972 C.3       1 <0>        -0.1398
      4 C4         -1.2735   -1.8411   -0.1834 C.3       1 <0>        -0.1401
      5 C5         -1.4548   -0.3394    0.0557 C.3       1 <0>        -0.1383
      6 C6         -0.0831    0.3094    0.2533 C.3       1 <0>         0.0186
      7 N1          0.5856   -0.2948    1.4119 N.4       1 <0>        -0.3759
      8 C7          1.8674    0.3840    1.6446 C.3       1 <0>        -0.0150
      9 C8          2.4749   -0.1102    2.9590 C.3       1 <0>         0.0310
     10 O1          2.8884   -1.4700    2.8111 O.3       1 <0>        -0.3206
     11 C9          3.4531   -2.0645    3.8948 C.ar      1 <0>         0.1028
     12 C10         3.6008   -1.3555    5.0781 C.ar      1 <0>        -0.1973
     13 C11         4.1747   -1.9623    6.1785 C.ar      1 <0>        -0.0732
     14 C12         4.6021   -3.2749    6.1012 C.ar      1 <0>        -0.0913
     15 C13         4.4564   -3.9836    4.9229 C.ar      1 <0>        -0.0728
     16 C14         3.8775   -3.3833    3.8216 C.ar      1 <0>        -0.1378
     17 C15         5.2282   -3.9342    7.3030 C.3       1 <0>        -0.0446
     18 C16         4.1554   -4.5963    8.1287 C.ar      1 <0>        -0.0816
     19 C17         3.5188   -3.8882    9.1308 C.ar      1 <0>        -0.1159
     20 C18         2.5347   -4.4955    9.8882 C.ar      1 <0>        -0.1172
     21 C19         2.1868   -5.8107    9.6431 C.ar      1 <0>        -0.1207
     22 C20         2.8227   -6.5185    8.6403 C.ar      1 <0>        -0.1165
     23 C21         3.8038   -5.9099    7.8801 C.ar      1 <0>        -0.1152
     24 C22        -0.2592    1.8103    0.4924 C.3       1 <0>        -0.1840
     25 H1          2.6057   -1.3637   -0.0023 H         1 <0>         0.0802
     26 H2          1.8320   -2.9377   -0.3063 H         1 <0>         0.1022
     27 H3          1.1069   -1.4488   -0.9587 H         1 <0>         0.0786
     28 H4          1.3735   -2.1500    1.9998 H         1 <0>         0.1598
     29 H5         -0.3277   -3.5054    0.8084 H         1 <0>         0.1099
     30 H6         -1.0979   -2.3353    1.9078 H         1 <0>         0.0845
     31 H7         -0.7088   -1.9983   -1.1024 H         1 <0>         0.0834
     32 H8         -2.2503   -2.3172   -0.2685 H         1 <0>         0.0936
     33 H9         -1.9490    0.1093   -0.8060 H         1 <0>         0.1108
     34 H10        -2.0630   -0.1835    0.9468 H         1 <0>         0.0869
     35 H11         0.5240    0.1531   -0.6383 H         1 <0>         0.1394
     36 H12         2.5495    0.1636    0.8235 H         1 <0>         0.1439
     37 H13         1.7035    1.4600    1.7019 H         1 <0>         0.1522
     38 H14         3.3369    0.5059    3.2151 H         1 <0>         0.1101
     39 H15         1.7304   -0.0410    3.7521 H         1 <0>         0.0844
     40 H16         3.2678   -0.3299    5.1388 H         1 <0>         0.1268
     41 H17         4.2899   -1.4107    7.0999 H         1 <0>         0.1293
     42 H18         4.7914   -5.0087    4.8649 H         1 <0>         0.1343
     43 H19         3.7599   -3.9387    2.9028 H         1 <0>         0.1320
     44 H20         5.9471   -4.6840    6.9728 H         1 <0>         0.0864
     45 H21         5.7382   -3.1824    7.9053 H         1 <0>         0.0855
     46 H22         3.7906   -2.8607    9.3224 H         1 <0>         0.1197
     47 H23         2.0379   -3.9425   10.6717 H         1 <0>         0.1230
     48 H24         1.4185   -6.2854   10.2353 H         1 <0>         0.1231
     49 H25         2.5512   -7.5461    8.4490 H         1 <0>         0.1235
     50 H26         4.2981   -6.4617    7.0942 H         1 <0>         0.1208
     51 H27        -0.7521    1.9701    1.4514 H         1 <0>         0.0798
     52 H28         0.7176    2.2939    0.5008 H         1 <0>         0.0823
     53 H29        -0.8686    2.2361   -0.3047 H         1 <0>         0.1061
     54 H30         0.0004   -0.1930    2.2276 H         1 <0>         0.4177
@<TRIPOS>BOND
     1    1    2 1
     2    1   25 1
     3    1   26 1
     4    1   27 1
     5    2    7 1
     6    2    3 1
     7    2   28 1
     8    3    4 1
     9    3   29 1
    10    3   30 1
    11    4    5 1
    12    4   31 1
    13    4   32 1
    14    5    6 1
    15    5   33 1
    16    5   34 1
    17    6    7 1
    18    6   24 1
    19    6   35 1
    20    7    8 1
    21    7   54 1
    22    8    9 1
    23    8   36 1
    24    8   37 1
    25    9   10 1
    26    9   38 1
    27    9   39 1
    28   10   11 1
    29   11   16 ar
    30   11   12 ar
    31   12   13 ar
    32   12   40 1
    33   13   14 ar
    34   13   41 1
    35   14   15 ar
    36   14   17 1
    37   15   16 ar
    38   15   42 1
    39   16   43 1
    40   17   18 1
    41   17   44 1
    42   17   45 1
    43   18   23 ar
    44   18   19 ar
    45   19   20 ar
    46   19   46 1
    47   20   21 ar
    48   20   47 1
    49   21   22 ar
    50   21   48 1
    51   22   23 ar
    52   22   49 1
    53   23   50 1
    54   24   51 1
    55   24   52 1
    56   24   53 1
@<TRIPOS>MOLECULE
CHEMBL162788__1
   54    56     0     0     0
SMALL
USER_CHARGES

@<TRIPOS>ATOM
      1 C1         -0.0187    1.5242    0.0104 C.3       1 <0>        -0.1826
      2 C2          0.0021   -0.0041    0.0020 C.3       1 <0>         0.0199
      3 C3         -1.4053   -0.5558   -0.1805 C.3       1 <0>        -0.1348
      4 C4         -2.2013   -0.4202    1.1183 C.3       1 <0>        -0.1354
      5 C5         -1.4676   -1.1967    2.2125 C.3       1 <0>        -0.1329
      6 C6         -0.0590   -0.6491    2.3972 C.3       1 <0>         0.0146
      7 N1          0.6943   -0.5436    1.1597 N.4       1 <0>        -0.3671
      8 C7          1.9102    0.2602    1.4071 C.3       1 <0>        -0.0095
      9 C8          2.7153   -0.3699    2.5454 C.3       1 <0>         0.0232
     10 O1          3.1882   -1.6558    2.1394 O.3       1 <0>        -0.3281
     11 C9          3.9265   -2.3547    3.0412 C.ar      1 <0>         0.1077
     12 C10         4.1854   -1.8164    4.2934 C.ar      1 <0>        -0.1991
     13 C11         4.9358   -2.5291    5.2086 C.ar      1 <0>        -0.0729
     14 C12         5.4289   -3.7776    4.8773 C.ar      1 <0>        -0.0919
     15 C13         5.1726   -4.3161    3.6299 C.ar      1 <0>        -0.0722
     16 C14         4.4176   -3.6101    2.7134 C.ar      1 <0>        -0.1378
     17 C15         6.2476   -4.5526    5.8774 C.3       1 <0>        -0.0445
     18 C16         5.3358   -5.4124    6.7144 C.ar      1 <0>        -0.0816
     19 C17         4.7950   -4.9119    7.8840 C.ar      1 <0>        -0.1159
     20 C18         3.9587   -5.7006    8.6517 C.ar      1 <0>        -0.1173
     21 C19         3.6628   -6.9897    8.2496 C.ar      1 <0>        -0.1208
     22 C20         4.2029   -7.4899    7.0795 C.ar      1 <0>        -0.1165
     23 C21         5.0358   -6.6997    6.3096 C.ar      1 <0>        -0.1151
     24 C22        -0.0948    0.6758    3.1583 C.3       1 <0>        -0.1860
     25 H1          1.0039    1.9015    0.0027 H         1 <0>         0.0812
     26 H2         -0.5458    1.8853   -0.8726 H         1 <0>         0.1042
     27 H3         -0.5288    1.8757    0.9072 H         1 <0>         0.0809
     28 H4          0.5847   -0.3060   -0.8963 H         1 <0>         0.1317
     29 H5         -1.9153   -0.0058   -0.9754 H         1 <0>         0.1098
     30 H6         -1.3525   -1.6102   -0.4629 H         1 <0>         0.0880
     31 H7         -2.3049    0.6244    1.3953 H         1 <0>         0.0817
     32 H8         -3.1962   -0.8521    0.9766 H         1 <0>         0.0931
     33 H9         -2.0218   -1.1080    3.1505 H         1 <0>         0.1090
     34 H10        -1.4180   -2.2525    1.9344 H         1 <0>         0.0882
     35 H11         0.4832   -1.3709    3.0477 H         1 <0>         0.1287
     36 H12         2.5186    0.2864    0.5030 H         1 <0>         0.1434
     37 H13         1.6248    1.2755    1.6826 H         1 <0>         0.1524
     38 H14         3.5641    0.2696    2.7875 H         1 <0>         0.1082
     39 H15         2.0792   -0.4775    3.4240 H         1 <0>         0.0888
     40 H16         3.8011   -0.8409    4.5523 H         1 <0>         0.1264
     41 H17         5.1376   -2.1104    6.1835 H         1 <0>         0.1296
     42 H18         5.5592   -5.2913    3.3734 H         1 <0>         0.1347
     43 H19         4.2140   -4.0330    1.7407 H         1 <0>         0.1328
     44 H20         6.9612   -5.1857    5.3502 H         1 <0>         0.0866
     45 H21         6.7855   -3.8581    6.5227 H         1 <0>         0.0856
     46 H22         5.0262   -3.9048    8.1981 H         1 <0>         0.1196
     47 H23         3.5367   -5.3099    9.5658 H         1 <0>         0.1229
     48 H24         3.0100   -7.6062    8.8497 H         1 <0>         0.1231
     49 H25         3.9720   -8.4971    6.7655 H         1 <0>         0.1236
     50 H26         5.4548   -7.0892    5.3936 H         1 <0>         0.1209
     51 H27        -0.5452    0.5197    4.1386 H         1 <0>         0.1046
     52 H28         0.9209    1.0520    3.2808 H         1 <0>         0.0801
     53 H29        -0.6856    1.4007    2.5983 H         1 <0>         0.0849
     54 H30         1.0212   -1.4870    0.9138 H         1 <0>         0.4318
@<TRIPOS>BOND
     1    1    2 1
     2    1   25 1
     3    1   26 1
     4    1   27 1
     5    2    7 1
     6    2    3 1
     7    2   28 1
     8    3    4 1
     9    3   29 1
    10    3   30 1
    11    4    5 1
    12    4   31 1
    13    4   32 1
    14    5    6 1
    15    5   33 1
    16    5   34 1
    17    6    7 1
    18    6   24 1
    19    6   35 1
    20    7    8 1
    21    7   54 1
    22    8    9 1
    23    8   36 1
    24    8   37 1
    25    9   10 1
    26    9   38 1
    27    9   39 1
    28   10   11 1
    29   11   16 ar
    30   11   12 ar
    31   12   13 ar
    32   12   40 1
    33   13   14 ar
    34   13   41 1
    35   14   15 ar
    36   14   17 1
    37   15   16 ar
    38   15   42 1
    39   16   43 1
    40   17   18 1
    41   17   44 1
    42   17   45 1
    43   18   23 ar
    44   18   19 ar
    45   19   20 ar
    46   19   46 1
    47   20   21 ar
    48   20   47 1
    49   21   22 ar
    50   21   48 1
    51   22   23 ar
    52   22   49 1
    53   23   50 1
    54   24   51 1
    55   24   52 1
    56   24   53 1
@<TRIPOS>MOLECULE
CHEMBL162788__2
   54    56     0     0     0
SMALL
USER_CHARGES

@<TRIPOS>ATOM
      1 C1         -0.0187    1.5258    0.0104 C.3       1 <0>        -0.1845
      2 C2          0.0021   -0.0041    0.0020 C.3       1 <0>         0.0205
      3 C3          0.7150   -0.4970   -1.2590 C.3       1 <0>        -0.1396
      4 C4          0.7331   -2.0282   -1.2631 C.3       1 <0>        -0.1394
      5 C5          1.4100   -2.5244    0.0178 C.3       1 <0>        -0.1395
      6 C6          0.6713   -1.9564    1.2315 C.3       1 <0>         0.0201
      7 N1          0.7121   -0.4897    1.1914 N.4       1 <0>        -0.3772
      8 C7          0.0700    0.0497    2.3975 C.3       1 <0>        -0.0135
      9 C8          0.8813   -0.3528    3.6306 C.3       1 <0>         0.0287
     10 O1          2.1677    0.2672    3.5777 O.3       1 <0>        -0.3276
     11 C9          3.0187    0.0111    4.6058 C.ar      1 <0>         0.1081
     12 C10         2.6259   -0.8243    5.6414 C.ar      1 <0>        -0.1993
     13 C11         3.4930   -1.0833    6.6852 C.ar      1 <0>        -0.0728
     14 C12         4.7513   -0.5104    6.6985 C.ar      1 <0>        -0.0922
     15 C13         5.1450    0.3229    5.6679 C.ar      1 <0>        -0.0721
     16 C14         4.2839    0.5802    4.6188 C.ar      1 <0>        -0.1380
     17 C15         5.6950   -0.7943    7.8387 C.3       1 <0>        -0.0444
     18 C16         6.5266   -2.0079    7.5121 C.ar      1 <0>        -0.0815
     19 C17         6.0798   -3.2674    7.8656 C.ar      1 <0>        -0.1160
     20 C18         6.8426   -4.3807    7.5661 C.ar      1 <0>        -0.1173
     21 C19         8.0519   -4.2345    6.9126 C.ar      1 <0>        -0.1208
     22 C20         8.4982   -2.9750    6.5582 C.ar      1 <0>        -0.1165
     23 C21         7.7334   -1.8622    6.8540 C.ar      1 <0>        -0.1151
     24 C22        -0.7845   -2.4263    1.2075 C.3       1 <0>        -0.1860
     25 H1          1.0039    1.9031    0.0027 H         1 <0>         0.0822
     26 H2         -0.5459    1.8868   -0.8726 H         1 <0>         0.1061
     27 H3         -0.5289    1.8773    0.9072 H         1 <0>         0.0820
     28 H4         -1.0207   -0.3809    0.0109 H         1 <0>         0.1389
     29 H5          0.1853   -0.1368   -2.1409 H         1 <0>         0.1122
     30 H6          1.7381   -0.1209   -1.2693 H         1 <0>         0.0881
     31 H7         -0.2890   -2.4047   -1.3045 H         1 <0>         0.0839
     32 H8          1.2891   -2.3839   -2.1305 H         1 <0>         0.0955
     33 H9          1.3771   -3.6135    0.0485 H         1 <0>         0.1117
     34 H10         2.4475   -2.1904    0.0340 H         1 <0>         0.0879
     35 H11         1.1506   -2.3079    2.1452 H         1 <0>         0.1345
     36 H12         0.0261    1.1368    2.3304 H         1 <0>         0.1462
     37 H13        -0.9405   -0.3502    2.4809 H         1 <0>         0.1498
     38 H14         0.3587   -0.0293    4.5308 H         1 <0>         0.1082
     39 H15         1.0005   -1.4361    3.6493 H         1 <0>         0.0844
     40 H16         1.6428   -1.2715    5.6318 H         1 <0>         0.1264
     41 H17         3.1876   -1.7336    7.4915 H         1 <0>         0.1295
     42 H18         6.1283    0.7695    5.6808 H         1 <0>         0.1347
     43 H19         4.5935    1.2277    3.8117 H         1 <0>         0.1326
     44 H20         6.3492    0.0641    7.9912 H         1 <0>         0.0865
     45 H21         5.1219   -0.9803    8.7470 H         1 <0>         0.0856
     46 H22         5.1350   -3.3817    8.3762 H         1 <0>         0.1196
     47 H23         6.4939   -5.3646    7.8429 H         1 <0>         0.1229
     48 H24         8.6482   -5.1041    6.6792 H         1 <0>         0.1231
     49 H25         9.4432   -2.8608    6.0479 H         1 <0>         0.1236
     50 H26         8.0804   -0.8785    6.5738 H         1 <0>         0.1209
     51 H27        -0.8154   -3.5154    1.2401 H         1 <0>         0.1062
     52 H28        -1.3112   -2.0219    2.0720 H         1 <0>         0.0794
     53 H29        -1.2643   -2.0764    0.2935 H         1 <0>         0.0863
     54 H30         1.6724   -0.1818    1.1577 H         1 <0>         0.4270
@<TRIPOS>BOND
     1    1    2 1
     2    1   25 1
     3    1   26 1
     4    1   27 1
     5    2    7 1
     6    2    3 1
     7    2   28 1
     8    3    4 1
     9    3   29 1
    10    3   30 1
    11    4    5 1
    12    4   31 1
    13    4   32 1
    14    5    6 1
    15    5   33 1
    16    5   34 1
    17    6    7 1
    18    6   24 1
    19    6   35 1
    20    7    8 1
    21    7   54 1
    22    8    9 1
    23    8   36 1
    24    8   37 1
    25    9   10 1
    26    9   38 1
    27    9   39 1
    28   10   11 1
    29   11   16 ar
    30   11   12 ar
    31   12   13 ar
    32   12   40 1
    33   13   14 ar
    34   13   41 1
    35   14   15 ar
    36   14   17 1
    37   15   16 ar
    38   15   42 1
    39   16   43 1
    40   17   18 1
    41   17   44 1
    42   17   45 1
    43   18   23 ar
    44   18   19 ar
    45   19   20 ar
    46   19   46 1
    47   20   21 ar
    48   20   47 1
    49   21   22 ar
    50   21   48 1
    51   22   23 ar
    52   22   49 1
    53   23   50 1
    54   24   51 1
    55   24   52 1
    56   24   53 1
@<TRIPOS>MOLECULE
CHEMBL479958
   45    48     0     0     0
SMALL
USER_CHARGES

@<TRIPOS>ATOM
      1 C1          0.3428   -4.9537    4.5180 C.ar      1 <0>        -0.1086
      2 C2          1.5781   -5.0984    5.1309 C.ar      1 <0>        -0.0927
      3 C3          2.7387   -4.8071    4.4433 C.ar      1 <0>        -0.0877
      4 C4          2.6719   -4.3668    3.1312 C.ar      1 <0>         0.0042
      5 C5          1.4242   -4.2191    2.5073 C.ar      1 <0>         0.0416
      6 C6          0.2584   -4.5172    3.2142 C.ar      1 <0>        -0.0612
      7 N1          1.6710   -3.7791    1.2429 N.2       1 <0>        -0.4590
      8 C7          2.9623   -3.6603    1.0849 C.2       1 <0>         0.4160
      9 O1          3.6006   -4.0100    2.2148 O.3       1 <0>        -0.2374
     10 O2          3.5685   -3.2454   -0.0500 O.3       1 <0>        -0.1753
     11 C8          4.9175   -3.0765   -0.0281 C.ar      1 <0>         0.0357
     12 C9          5.4555   -1.8003    0.0516 C.ar      1 <0>        -0.0596
     13 C10         6.8258   -1.6287    0.0737 C.ar      1 <0>        -0.1291
     14 C11         7.6640   -2.7324    0.0164 C.ar      1 <0>         0.1304
     15 C12         7.1261   -4.0085   -0.0637 C.ar      1 <0>        -0.1894
     16 C13         5.7558   -4.1805   -0.0797 C.ar      1 <0>        -0.0682
     17 O3          9.0130   -2.5634    0.0382 O.3       1 <0>        -0.3203
     18 C14         9.8158   -3.7440   -0.0239 C.3       1 <0>         0.0249
     19 C15        11.2956   -3.3569    0.0119 C.3       1 <0>         0.0013
     20 N2         11.6095   -2.7413    1.3082 N.4       1 <0>        -0.3918
     21 C16        10.8873   -1.4577    1.4373 C.3       1 <0>        -0.0028
     22 C17        11.8635   -0.5298    2.2025 C.3       1 <0>        -0.1456
     23 C18        13.2320   -0.9581    1.6104 C.3       1 <0>        -0.1421
     24 C19        13.0573   -2.4761    1.3939 C.3       1 <0>        -0.0135
     25 H1         -0.5584   -5.1889    5.0646 H         1 <0>         0.1437
     26 H2          1.6324   -5.4410    6.1537 H         1 <0>         0.1451
     27 H3          3.6973   -4.9218    4.9272 H         1 <0>         0.1351
     28 H4         -0.7060   -4.4057    2.7411 H         1 <0>         0.1426
     29 H5          4.8029   -0.9410    0.0959 H         1 <0>         0.1519
     30 H6          7.2446   -0.6352    0.1354 H         1 <0>         0.1477
     31 H7          7.7788   -4.8677   -0.1091 H         1 <0>         0.1402
     32 H8          5.3369   -5.1744   -0.1368 H         1 <0>         0.1428
     33 H9          9.5870   -4.3842    0.8280 H         1 <0>         0.0886
     34 H10         9.6027   -4.2800   -0.9488 H         1 <0>         0.1125
     35 H11        11.9077   -4.2484   -0.1248 H         1 <0>         0.1509
     36 H12        11.5047   -2.6465   -0.7879 H         1 <0>         0.1419
     37 H13        10.6657   -1.0462    0.4526 H         1 <0>         0.1380
     38 H14         9.9686   -1.5949    2.0077 H         1 <0>         0.1337
     39 H15        11.6557    0.5183    1.9870 H         1 <0>         0.1167
     40 H16        11.8248   -0.7214    3.2748 H         1 <0>         0.0971
     41 H17        13.4171   -0.4525    0.6626 H         1 <0>         0.0989
     42 H18        14.0371   -0.7599    2.3179 H         1 <0>         0.1128
     43 H19        13.4852   -3.0221    2.2346 H         1 <0>         0.1329
     44 H20        13.5450   -2.7770    0.4667 H         1 <0>         0.1323
     45 H21        11.3330   -3.3609    2.0550 H         1 <0>         0.4247
@<TRIPOS>BOND
     1    1    6 ar
     2    1    2 ar
     3    1   25 1
     4    2    3 ar
     5    2   26 1
     6    3    4 ar
     7    3   27 1
     8    4    9 1
     9    4    5 ar
    10    5    6 ar
    11    5    7 1
    12    6   28 1
    13    7    8 2
    14    8    9 1
    15    8   10 1
    16   10   11 1
    17   11   16 ar
    18   11   12 ar
    19   12   13 ar
    20   12   29 1
    21   13   14 ar
    22   13   30 1
    23   14   15 ar
    24   14   17 1
    25   15   16 ar
    26   15   31 1
    27   16   32 1
    28   17   18 1
    29   18   19 1
    30   18   33 1
    31   18   34 1
    32   19   20 1
    33   19   35 1
    34   19   36 1
    35   20   24 1
    36   20   21 1
    37   20   45 1
    38   21   22 1
    39   21   37 1
    40   21   38 1
    41   22   23 1
    42   22   39 1
    43   22   40 1
    44   23   24 1
    45   23   41 1
    46   23   42 1
    47   24   43 1
    48   24   44 1
@<TRIPOS>MOLECULE
CHEMBL480130
   55    59     0     0     0
SMALL
USER_CHARGES

@<TRIPOS>ATOM
      1 C1         -0.7769   -1.5640   -4.1921 C.ar      1 <0>        -0.1022
      2 C2          0.2236   -1.4876   -5.1504 C.ar      1 <0>        -0.0877
      3 C3          1.5001   -1.9127   -4.8317 C.ar      1 <0>        -0.0648
      4 C4          1.7573   -2.4026   -3.5756 C.ar      1 <0>        -0.1341
      5 C5          0.7639   -2.4953   -2.5746 C.ar      1 <0>         0.0950
      6 C6         -0.5293   -2.0517   -2.9356 C.ar      1 <0>        -0.0584
      7 N1          1.1726   -2.9992   -1.3897 N.2       1 <0>        -0.5018
      8 C7          2.4092   -3.3799   -1.1739 C.2       1 <0>         0.3277
      9 S1          3.1919   -3.0415   -2.7446 S.3       1 <0>        -0.0327
     10 O1          2.9537   -3.8977   -0.0484 O.3       1 <0>        -0.1914
     11 C8          4.2478   -4.3100   -0.0970 C.ar      1 <0>         0.1016
     12 C9          5.2756   -3.3788   -0.0584 C.ar      1 <0>        -0.1137
     13 C10         6.5902   -3.8004   -0.1079 C.ar      1 <0>        -0.0803
     14 C11         6.8820   -5.1491   -0.1964 C.ar      1 <0>        -0.1486
     15 C12         5.8595   -6.0791   -0.2351 C.ar      1 <0>        -0.0755
     16 C13         4.5434   -5.6631   -0.1796 C.ar      1 <0>        -0.0984
     17 C14         8.3170   -5.6061   -0.2514 C.3       1 <0>         0.0432
     18 N2          8.8091   -5.8398    1.1129 N.4       1 <0>        -0.3849
     19 C15         8.8250   -4.5704    1.8498 C.3       1 <0>        -0.0073
     20 C16         9.2595   -4.8209    3.2954 C.3       1 <0>        -0.1645
     21 C17        10.6627   -5.4343    3.3019 C.3       1 <0>         0.1523
     22 C18        10.6513   -6.7190    2.4684 C.3       1 <0>        -0.1664
     23 C19        10.1652   -6.3982    1.0534 C.3       1 <0>         0.0004
     24 N3         11.0543   -5.7469    4.6786 N.am      1 <0>        -0.6208
     25 C20        12.2221   -5.1735    5.3578 C.3       1 <0>         0.1005
     26 C21        11.9910   -5.4313    6.8633 C.3       1 <0>        -0.1343
     27 C22        11.0671   -6.6709    6.8327 C.3       1 <0>        -0.1592
     28 C23        10.3870   -6.5915    5.4837 C.2       1 <0>         0.5236
     29 O2          9.3867   -7.2029    5.1731 O.2       1 <0>        -0.5297
     30 H1         -1.7725   -1.2274   -4.4407 H         1 <0>         0.1421
     31 H2          0.0074   -1.1003   -6.1351 H         1 <0>         0.1455
     32 H3          2.2897   -1.8600   -5.5667 H         1 <0>         0.1378
     33 H4         -1.3307   -2.0977   -2.2131 H         1 <0>         0.1395
     34 H5          5.0482   -2.3252    0.0100 H         1 <0>         0.1494
     35 H6          7.3906   -3.0760   -0.0779 H         1 <0>         0.1453
     36 H7          6.0901   -7.1319   -0.3046 H         1 <0>         0.1471
     37 H8          3.7452   -6.3901   -0.2053 H         1 <0>         0.1521
     38 H9          8.3820   -6.5311   -0.8244 H         1 <0>         0.1426
     39 H10         8.9248   -4.8385   -0.7303 H         1 <0>         0.1407
     40 H11         9.5251   -3.8835    1.3743 H         1 <0>         0.1320
     41 H12         7.8264   -4.1335    1.8416 H         1 <0>         0.1344
     42 H13         9.2724   -3.8770    3.8404 H         1 <0>         0.1142
     43 H14         8.5599   -5.5075    3.7720 H         1 <0>         0.1032
     44 H15        11.3717   -4.7270    2.8717 H         1 <0>         0.1061
     45 H16        11.6591   -7.1318    2.4223 H         1 <0>         0.1154
     46 H17         9.9806   -7.4450    2.9279 H         1 <0>         0.1041
     47 H18        10.1561   -7.3106    0.4573 H         1 <0>         0.1363
     48 H19        10.8367   -5.6723    0.5949 H         1 <0>         0.1323
     49 H20        13.1335   -5.6705    5.0256 H         1 <0>         0.0788
     50 H21        12.2833   -4.1027    5.1636 H         1 <0>         0.0837
     51 H22        12.9298   -5.6569    7.3691 H         1 <0>         0.0982
     52 H23        11.4910   -4.5837    7.3320 H         1 <0>         0.0864
     53 H24        11.6536   -7.5859    6.9153 H         1 <0>         0.1107
     54 H25        10.3289   -6.6163    7.6328 H         1 <0>         0.1079
     55 H26         8.1984   -6.4914    1.5826 H         1 <0>         0.4262
@<TRIPOS>BOND
     1    1    6 ar
     2    1    2 ar
     3    1   30 1
     4    2    3 ar
     5    2   31 1
     6    3    4 ar
     7    3   32 1
     8    4    9 1
     9    4    5 ar
    10    5    6 ar
    11    5    7 1
    12    6   33 1
    13    7    8 2
    14    8    9 1
    15    8   10 1
    16   10   11 1
    17   11   16 ar
    18   11   12 ar
    19   12   13 ar
    20   12   34 1
    21   13   14 ar
    22   13   35 1
    23   14   15 ar
    24   14   17 1
    25   15   16 ar
    26   15   36 1
    27   16   37 1
    28   17   18 1
    29   17   38 1
    30   17   39 1
    31   18   23 1
    32   18   19 1
    33   18   55 1
    34   19   20 1
    35   19   40 1
    36   19   41 1
    37   20   21 1
    38   20   42 1
    39   20   43 1
    40   21   22 1
    41   21   24 1
    42   21   44 1
    43   22   23 1
    44   22   45 1
    45   22   46 1
    46   23   47 1
    47   23   48 1
    48   24   28 am
    49   24   25 1
    50   25   26 1
    51   25   49 1
    52   25   50 1
    53   26   27 1
    54   26   51 1
    55   26   52 1
    56   27   28 1
    57   27   53 1
    58   27   54 1
    59   28   29 2
@<TRIPOS>MOLECULE
CHEMBL518155
   53    57     0     0     0
SMALL
USER_CHARGES

@<TRIPOS>ATOM
      1 C1         -0.7769   -1.5640   -4.1921 C.ar      1 <0>        -0.1022
      2 C2          0.2236   -1.4876   -5.1504 C.ar      1 <0>        -0.0876
      3 C3          1.5001   -1.9127   -4.8317 C.ar      1 <0>        -0.0648
      4 C4          1.7573   -2.4026   -3.5756 C.ar      1 <0>        -0.1341
      5 C5          0.7639   -2.4953   -2.5746 C.ar      1 <0>         0.0949
      6 C6         -0.5293   -2.0517   -2.9356 C.ar      1 <0>        -0.0583
      7 N1          1.1726   -2.9992   -1.3897 N.2       1 <0>        -0.5017
      8 C7          2.4092   -3.3799   -1.1739 C.2       1 <0>         0.3276
      9 S1          3.1919   -3.0415   -2.7446 S.3       1 <0>        -0.0328
     10 O1          2.9537   -3.8977   -0.0484 O.3       1 <0>        -0.1915
     11 C8          4.2478   -4.3100   -0.0970 C.ar      1 <0>         0.1019
     12 C9          5.2756   -3.3788   -0.0584 C.ar      1 <0>        -0.1138
     13 C10         6.5902   -3.8004   -0.1079 C.ar      1 <0>        -0.0804
     14 C11         6.8820   -5.1491   -0.1964 C.ar      1 <0>        -0.1493
     15 C12         5.8595   -6.0791   -0.2351 C.ar      1 <0>        -0.0752
     16 C13         4.5434   -5.6631   -0.1796 C.ar      1 <0>        -0.0983
     17 C14         8.3170   -5.6061   -0.2514 C.3       1 <0>         0.0435
     18 N2          8.8091   -5.8398    1.1129 N.4       1 <0>        -0.3860
     19 C15         8.8250   -4.5704    1.8498 C.3       1 <0>        -0.0069
     20 C16         9.2595   -4.8209    3.2954 C.3       1 <0>        -0.1677
     21 C17        10.6627   -5.4343    3.3019 C.3       1 <0>         0.1760
     22 C18        10.6513   -6.7190    2.4684 C.3       1 <0>        -0.1690
     23 C19        10.1652   -6.3982    1.0534 C.3       1 <0>         0.0010
     24 N3         11.0543   -5.7469    4.6786 N.am      1 <0>        -0.6373
     25 C20        12.2182   -5.1943    5.3993 C.3       1 <0>         0.0632
     26 C21        11.9025   -5.5694    6.8668 C.3       1 <0>         0.0371
     27 O2         11.0269   -6.7023    6.7053 O.3       1 <0>        -0.3189
     28 C22        10.4140   -6.5852    5.5151 C.2       1 <0>         0.6472
     29 O3          9.3926   -7.1755    5.2238 O.2       1 <0>        -0.5151
     30 H1         -1.7725   -1.2274   -4.4407 H         1 <0>         0.1421
     31 H2          0.0074   -1.1003   -6.1351 H         1 <0>         0.1455
     32 H3          2.2897   -1.8600   -5.5667 H         1 <0>         0.1378
     33 H4         -1.3307   -2.0977   -2.2131 H         1 <0>         0.1396
     34 H5          5.0482   -2.3252    0.0100 H         1 <0>         0.1494
     35 H6          7.3906   -3.0760   -0.0779 H         1 <0>         0.1453
     36 H7          6.0901   -7.1319   -0.3046 H         1 <0>         0.1473
     37 H8          3.7452   -6.3901   -0.2053 H         1 <0>         0.1522
     38 H9          8.3820   -6.5311   -0.8244 H         1 <0>         0.1432
     39 H10         8.9248   -4.8385   -0.7303 H         1 <0>         0.1411
     40 H11         9.5251   -3.8835    1.3743 H         1 <0>         0.1334
     41 H12         7.8264   -4.1335    1.8416 H         1 <0>         0.1360
     42 H13         9.2724   -3.8770    3.8404 H         1 <0>         0.1163
     43 H14         8.5599   -5.5075    3.7720 H         1 <0>         0.1055
     44 H15        11.3717   -4.7270    2.8717 H         1 <0>         0.1132
     45 H16        11.6591   -7.1318    2.4223 H         1 <0>         0.1181
     46 H17         9.9806   -7.4450    2.9279 H         1 <0>         0.1053
     47 H18        10.1561   -7.3106    0.4573 H         1 <0>         0.1382
     48 H19        10.8367   -5.6723    0.5949 H         1 <0>         0.1336
     49 H20        13.1415   -5.6692    5.0674 H         1 <0>         0.0960
     50 H21        12.2717   -4.1124    5.2782 H         1 <0>         0.1045
     51 H22        12.8102   -5.8519    7.4002 H         1 <0>         0.1286
     52 H23        11.3918   -4.7522    7.3761 H         1 <0>         0.0993
     53 H24         8.1984   -6.4914    1.5826 H         1 <0>         0.4269
@<TRIPOS>BOND
     1    1    6 ar
     2    1    2 ar
     3    1   30 1
     4    2    3 ar
     5    2   31 1
     6    3    4 ar
     7    3   32 1
     8    4    9 1
     9    4    5 ar
    10    5    6 ar
    11    5    7 1
    12    6   33 1
    13    7    8 2
    14    8    9 1
    15    8   10 1
    16   10   11 1
    17   11   16 ar
    18   11   12 ar
    19   12   13 ar
    20   12   34 1
    21   13   14 ar
    22   13   35 1
    23   14   15 ar
    24   14   17 1
    25   15   16 ar
    26   15   36 1
    27   16   37 1
    28   17   18 1
    29   17   38 1
    30   17   39 1
    31   18   23 1
    32   18   19 1
    33   18   53 1
    34   19   20 1
    35   19   40 1
    36   19   41 1
    37   20   21 1
    38   20   42 1
    39   20   43 1
    40   21   22 1
    41   21   24 1
    42   21   44 1
    43   22   23 1
    44   22   45 1
    45   22   46 1
    46   23   47 1
    47   23   48 1
    48   24   28 am
    49   24   25 1
    50   25   26 1
    51   25   49 1
    52   25   50 1
    53   26   27 1
    54   26   51 1
    55   26   52 1
    56   27   28 1
    57   28   29 2
@<TRIPOS>MOLECULE
CHEMBL570775
   44    46     0     0     0
SMALL
USER_CHARGES

@<TRIPOS>ATOM
      1 C1         -0.0167    1.3781    0.0096 C.ar      1 <0>        -0.1073
      2 C2          1.1709    2.0855    0.0021 C.ar      1 <0>        -0.1206
      3 C3          2.3773    1.4107   -0.0130 C.ar      1 <0>        -0.1003
      4 C4          2.3960    0.0285   -0.0201 C.ar      1 <0>        -0.1163
      5 C5          1.2084   -0.6789   -0.0117 C.ar      1 <0>        -0.1006
      6 C6          0.0021   -0.0041    0.0020 C.ar      1 <0>        -0.1208
      7 C7          3.7112   -0.7071   -0.0376 C.3       1 <0>         0.1668
      8 N1          4.1518   -0.9524    1.3379 N.pl3     1 <0>        -0.7400
      9 C8          5.3551   -1.6253    1.5776 C.ar      1 <0>         0.2035
     10 C9          6.1347   -2.0556    0.5121 C.ar      1 <0>        -0.1613
     11 C10         7.3224   -2.7192    0.7496 C.ar      1 <0>        -0.0872
     12 C11         7.7366   -2.9559    2.0520 C.ar      1 <0>         0.0453
     13 C12         6.9583   -2.5268    3.1169 C.ar      1 <0>        -0.1480
     14 C13         5.7732   -1.8580    2.8812 C.ar      1 <0>        -0.1591
     15 O1          8.9063   -3.6094    2.2850 O.3       1 <0>        -0.3269
     16 C14         9.2715   -3.8190    3.6506 C.3       1 <0>         0.0339
     17 C15        10.6064   -4.5640    3.7130 C.3       1 <0>         0.0323
     18 H1         10.9413   -4.6386    4.7476 H         1 <0>         0.1566
     19 C16        11.6635   -3.8184    2.8715 C.3       1 <0>        -0.1381
     20 C17        12.4645   -4.9728    2.2139 C.3       1 <0>        -0.1425
     21 C18        11.3524   -6.0210    1.9613 C.3       1 <0>        -0.0044
     22 N2         10.4557   -5.9124    3.1360 N.4       1 <0>        -0.5134
     23 H2         -0.9591    1.9053    0.0259 H         1 <0>         0.1263
     24 H3          1.1563    3.1654    0.0076 H         1 <0>         0.1265
     25 H4          3.3051    1.9634   -0.0196 H         1 <0>         0.1233
     26 H5          1.2231   -1.7588   -0.0176 H         1 <0>         0.1229
     27 H6         -0.9258   -0.5567    0.0082 H         1 <0>         0.1263
     28 H7          3.5884   -1.6586   -0.5549 H         1 <0>         0.0699
     29 H8          4.4573   -0.1052   -0.5563 H         1 <0>         0.0702
     30 H9          3.6095   -0.6484    2.0824 H         1 <0>         0.4036
     31 H10         5.8121   -1.8717   -0.5021 H         1 <0>         0.1328
     32 H11         7.9286   -3.0543   -0.0790 H         1 <0>         0.1301
     33 H12         7.2814   -2.7118    4.1307 H         1 <0>         0.1249
     34 H13         5.1697   -1.5197    3.7105 H         1 <0>         0.1273
     35 H14         9.3689   -2.8563    4.1525 H         1 <0>         0.1060
     36 H15         8.5017   -4.4108    4.1459 H         1 <0>         0.0843
     37 H16        11.1853   -3.1997    2.1122 H         1 <0>         0.1113
     38 H17        12.3096   -3.2160    3.5102 H         1 <0>         0.1130
     39 H18        12.9168   -4.6496    1.2763 H         1 <0>         0.1177
     40 H19        13.2202   -5.3620    2.8963 H         1 <0>         0.0979
     41 H20        10.8101   -5.7858    1.0454 H         1 <0>         0.1357
     42 H21        11.7802   -7.0219    1.9035 H         1 <0>         0.1358
     43 H22        10.7081   -6.6062    3.8238 H         1 <0>         0.4302
     44 H23         9.4990   -6.0537    2.8483 H         1 <0>         0.4326
@<TRIPOS>BOND
     1    1    6 ar
     2    1    2 ar
     3    1   23 1
     4    2    3 ar
     5    2   24 1
     6    3    4 ar
     7    3   25 1
     8    4    5 ar
     9    4    7 1
    10    5    6 ar
    11    5   26 1
    12    6   27 1
    13    7    8 1
    14    7   28 1
    15    7   29 1
    16    8    9 1
    17    8   30 1
    18    9   14 ar
    19    9   10 ar
    20   10   11 ar
    21   10   31 1
    22   11   12 ar
    23   11   32 1
    24   12   13 ar
    25   12   15 1
    26   13   14 ar
    27   13   33 1
    28   14   34 1
    29   15   16 1
    30   16   17 1
    31   16   35 1
    32   16   36 1
    33   17   18 1
    34   17   22 1
    35   17   19 1
    36   19   20 1
    37   19   37 1
    38   19   38 1
    39   20   21 1
    40   20   39 1
    41   20   40 1
    42   21   22 1
    43   21   41 1
    44   21   42 1
    45   22   43 1
    46   22   44 1
@<TRIPOS>MOLECULE
CHEMBL500409
   54    55     0     0     0
SMALL
USER_CHARGES

@<TRIPOS>ATOM
      1 C1          0.7034    1.2663    0.4520 C.3       1 <0>        -0.1396
      2 C2         -0.0050   -0.0130    0.0021 C.3       1 <0>        -0.0907
      3 H1         -1.0658    0.1911   -0.1435 H         1 <0>         0.1090
      4 C3          0.1644   -1.0932    1.0723 C.3       1 <0>        -0.0409
      5 S1         -0.6883   -0.5805    2.5891 S.3       1 <0>        -0.2432
      6 C4          0.5970   -0.4913   -1.2941 C.2       1 <0>         0.5500
      7 O1          1.5498   -1.2415   -1.2798 O.2       1 <0>        -0.5428
      8 N1          0.0765   -0.0852   -2.4691 N.am      1 <0>        -0.5591
      9 C5         -0.9957    0.9129   -2.6348 C.3       1 <0>         0.0505
     10 H2         -0.8884    1.7105   -1.8996 H         1 <0>         0.0820
     11 C6         -0.8009    1.4700   -4.0671 C.3       1 <0>        -0.1106
     12 C7         -0.3624    0.1978   -4.8393 C.3       1 <0>        -0.1214
     13 C8          0.4885   -0.5597   -3.7983 C.3       1 <0>         0.1814
     14 H3          1.5460   -0.3479   -3.9562 H         1 <0>         0.0773
     15 S2          0.1853   -2.3427   -3.9382 S.3       1 <0>        -0.1984
     16 C9          1.2576   -2.8643   -5.3052 C.3       1 <0>        -0.0664
     17 C10         1.1004   -4.3462   -5.5297 C.ar      1 <0>        -0.0628
     18 C11         1.9110   -5.2377   -4.8522 C.ar      1 <0>        -0.0992
     19 C12         1.7668   -6.5970   -5.0581 C.ar      1 <0>        -0.1166
     20 C13         0.8117   -7.0648   -5.9412 C.ar      1 <0>        -0.0728
     21 C14         0.0005   -6.1733   -6.6180 C.ar      1 <0>        -0.1215
     22 C15         0.1418   -4.8142   -6.4088 C.ar      1 <0>        -0.0982
     23 C16         0.6552   -8.5466   -6.1664 C.3       1 <0>        -0.0291
     24 C17         0.3012   -9.2290   -4.8435 C.3       1 <0>        -0.1391
     25 C18        -0.4622   -8.7928   -7.1822 C.3       1 <0>        -0.1441
     26 C19         1.9675   -9.1225   -6.7022 C.3       1 <0>        -0.1370
     27 C20        -2.3467    0.2581   -2.5035 C.2       1 <0>         0.4879
     28 O2         -3.3518    0.9440   -2.4282 O.co2     1 <0>        -0.6945
     29 O3         -2.4345   -0.9576   -2.4726 O.co2     1 <0>        -0.6611
     30 H4          1.7582    1.0550    0.6276 H         1 <0>         0.0611
     31 H5          0.6093    2.0259   -0.3240 H         1 <0>         0.0604
     32 H6          0.2474    1.6294    1.3731 H         1 <0>         0.0776
     33 H7         -0.2629   -2.0297    0.7141 H         1 <0>         0.0885
     34 H8          1.2248   -1.2342    1.2816 H         1 <0>         0.0915
     35 H9         -0.4711   -1.5962    3.4436 H         1 <0>         0.0819
     36 H10        -1.7366    1.8645   -4.4634 H         1 <0>         0.0891
     37 H11        -0.0187    2.2289   -4.0881 H         1 <0>         0.0655
     38 H12        -1.2300   -0.3915   -5.1360 H         1 <0>         0.0950
     39 H13         0.2407    0.4625   -5.7078 H         1 <0>         0.0752
     40 H14         0.9776   -2.3278   -6.2117 H         1 <0>         0.0834
     41 H15         2.2957   -2.6424   -5.0576 H         1 <0>         0.0808
     42 H16         2.6572   -4.8722   -4.1623 H         1 <0>         0.1217
     43 H17         2.4006   -7.2935   -4.5294 H         1 <0>         0.1185
     44 H18        -0.7455   -6.5388   -7.3082 H         1 <0>         0.1253
     45 H19        -0.4945   -4.1178   -6.9348 H         1 <0>         0.1234
     46 H20        -0.6337   -8.8187   -4.4619 H         1 <0>         0.0580
     47 H21         0.1880  -10.3008   -5.0065 H         1 <0>         0.0560
     48 H22         1.0973   -9.0536   -4.1199 H         1 <0>         0.0566
     49 H23        -0.2100   -8.3067   -8.1247 H         1 <0>         0.0581
     50 H24        -0.5754   -9.8646   -7.3451 H         1 <0>         0.0558
     51 H25        -1.3971   -8.3826   -6.8005 H         1 <0>         0.0601
     52 H26         2.7635   -8.9470   -5.9785 H         1 <0>         0.0562
     53 H27         1.8543  -10.1943   -6.8651 H         1 <0>         0.0559
     54 H28         2.2197   -8.6363   -7.6446 H         1 <0>         0.0553
@<TRIPOS>BOND
     1    1    2 1
     2    1   30 1
     3    1   31 1
     4    1   32 1
     5    2    3 1
     6    2    4 1
     7    2    6 1
     8    4    5 1
     9    4   33 1
    10    4   34 1
    11    5   35 1
    12    6    7 2
    13    6    8 am
    14    8   13 1
    15    8    9 1
    16    9   10 1
    17    9   11 1
    18    9   27 1
    19   11   12 1
    20   11   36 1
    21   11   37 1
    22   12   13 1
    23   12   38 1
    24   12   39 1
    25   13   14 1
    26   13   15 1
    27   15   16 1
    28   16   17 1
    29   16   40 1
    30   16   41 1
    31   17   22 ar
    32   17   18 ar
    33   18   19 ar
    34   18   42 1
    35   19   20 ar
    36   19   43 1
    37   20   21 ar
    38   20   23 1
    39   21   22 ar
    40   21   44 1
    41   22   45 1
    42   23   24 1
    43   23   25 1
    44   23   26 1
    45   24   46 1
    46   24   47 1
    47   24   48 1
    48   25   49 1
    49   25   50 1
    50   25   51 1
    51   26   52 1
    52   26   53 1
    53   26   54 1
    54   27   28 2
    55   27   29 1
@<TRIPOS>MOLECULE
CHEMBL315255
   44    44     0     0     0
SMALL
USER_CHARGES

@<TRIPOS>ATOM
      1 C1         -0.0075    2.8570    1.5338 C.3       1 <0>        -0.1356
      2 C2         -0.1988    1.4400    0.9894 C.3       1 <0>         0.0740
      3 H1         -1.2553    1.1748    1.0299 H         1 <0>         0.0790
      4 C3          0.2794    1.3817   -0.4385 C.2       1 <0>         0.4957
      5 O1          1.2935    0.7648   -0.7171 O.co2     1 <0>        -0.6952
      6 O2         -0.3478    1.9515   -1.3152 O.co2     1 <0>        -0.6895
      7 N1          0.5731    0.4964    1.8018 N.am      1 <0>        -0.7030
      8 C4          0.0445   -0.0066    2.9349 C.2       1 <0>         0.5145
      9 O3         -1.0701    0.3219    3.2821 O.2       1 <0>        -0.5364
     10 C5          0.8385   -0.9773    3.7706 C.3       1 <0>        -0.0926
     11 H2          1.0751   -1.8597    3.1761 H         1 <0>         0.1058
     12 C6          0.0152   -1.3910    4.9920 C.3       1 <0>        -0.1023
     13 C7          0.7617   -2.4800    5.7652 C.3       1 <0>        -0.0878
     14 C8          0.8471   -3.7455    4.9095 C.3       1 <0>        -0.1200
     15 C9          1.5936   -4.8345    5.6827 C.3       1 <0>        -0.1186
     16 C10         0.8428   -5.1452    6.9791 C.3       1 <0>        -0.1198
     17 C11         0.7574   -3.8797    7.8348 C.3       1 <0>        -0.1181
     18 C12         0.0109   -2.7907    7.0616 C.3       1 <0>        -0.1139
     19 C13         2.1359   -0.3105    4.2322 C.3       1 <0>        -0.1243
     20 C14         1.8101    0.9463    4.9974 C.2       1 <0>         0.5141
     21 O4          0.6630    1.3340    5.0665 O.2       1 <0>        -0.4825
     22 N2          2.7935    1.6394    5.6048 N.am      1 <0>        -0.6022
     23 O5          2.4874    2.8203    6.3237 O.3       1 <0>        -0.3195
     24 H3          1.0490    3.1223    1.4933 H         1 <0>         0.0424
     25 H4         -0.5818    3.5591    0.9294 H         1 <0>         0.0610
     26 H5         -0.3534    2.8992    2.5666 H         1 <0>         0.0502
     27 H6          1.4646    0.2336    1.5241 H         1 <0>         0.3990
     28 H7         -0.1366   -0.5261    5.6378 H         1 <0>         0.0860
     29 H8         -0.9514   -1.7748    4.6656 H         1 <0>         0.0725
     30 H9          1.7674   -2.1329    6.0020 H         1 <0>         0.0663
     31 H10        -0.1587   -4.0925    4.6727 H         1 <0>         0.0637
     32 H11         1.3819   -3.5241    3.9859 H         1 <0>         0.0655
     33 H12         1.6544   -5.7360    5.0731 H         1 <0>         0.0591
     34 H13         2.5993   -4.4874    5.9195 H         1 <0>         0.0592
     35 H14        -0.1629   -5.4922    6.7423 H         1 <0>         0.0605
     36 H15         1.3746   -5.9210    7.5300 H         1 <0>         0.0564
     37 H16         0.2225   -4.1010    8.7584 H         1 <0>         0.0576
     38 H17         1.7631   -3.5326    8.0716 H         1 <0>         0.0585
     39 H18        -0.0500   -1.8891    7.6712 H         1 <0>         0.0605
     40 H19        -0.9949   -3.1378    6.8248 H         1 <0>         0.0627
     41 H20         2.6873   -0.9954    4.8764 H         1 <0>         0.1058
     42 H21         2.7445   -0.0594    3.3634 H         1 <0>         0.1054
     43 H22         3.7110    1.3294    5.5495 H         1 <0>         0.4039
     44 H23         3.2569    3.2476    6.7242 H         1 <0>         0.3818
@<TRIPOS>BOND
     1    1    2 1
     2    1   24 1
     3    1   25 1
     4    1   26 1
     5    2    3 1
     6    2    4 1
     7    2    7 1
     8    4    5 2
     9    4    6 1
    10    7    8 am
    11    7   27 1
    12    8    9 2
    13    8   10 1
    14   10   11 1
    15   10   12 1
    16   10   19 1
    17   12   13 1
    18   12   28 1
    19   12   29 1
    20   13   18 1
    21   13   14 1
    22   13   30 1
    23   14   15 1
    24   14   31 1
    25   14   32 1
    26   15   16 1
    27   15   33 1
    28   15   34 1
    29   16   17 1
    30   16   35 1
    31   16   36 1
    32   17   18 1
    33   17   37 1
    34   17   38 1
    35   18   39 1
    36   18   40 1
    37   19   20 1
    38   19   41 1
    39   19   42 1
    40   20   21 2
    41   20   22 am
    42   22   23 1
    43   22   43 1
    44   23   44 1
@<TRIPOS>MOLECULE
CHEMBL525948
   54    55     0     0     0
SMALL
USER_CHARGES

@<TRIPOS>ATOM
      1 C1          0.0093    1.2640   -0.8348 C.3       1 <0>        -0.1397
      2 C2          0.0059   -0.0129    0.0082 C.3       1 <0>        -0.0906
      3 H1          0.4049    0.2048    0.9989 H         1 <0>         0.1092
      4 C3          0.8750   -1.0739   -0.6699 C.3       1 <0>        -0.0409
      5 S1          2.6015   -0.5178   -0.6915 S.3       1 <0>        -0.2432
      6 C4         -1.4051   -0.5263    0.1365 C.2       1 <0>         0.5500
      7 O1         -1.8501   -1.2909   -0.6932 O.2       1 <0>        -0.5429
      8 N1         -2.1726   -0.1358    1.1733 N.am      1 <0>        -0.5596
      9 C5         -1.8053    0.8754    2.1812 C.3       1 <0>         0.0506
     10 H2         -1.2425    1.6858    1.7180 H         1 <0>         0.0821
     11 C6         -3.1567    1.4007    2.7267 C.3       1 <0>        -0.1107
     12 C7         -4.0126    0.1066    2.7374 C.3       1 <0>        -0.1214
     13 C8         -3.5174   -0.6431    1.4827 C.3       1 <0>         0.1878
     14 H3         -4.1879   -0.4510    0.6451 H         1 <0>         0.0772
     15 S2         -3.4423   -2.4236    1.8215 S.3       1 <0>        -0.2152
     16 C9         -5.1486   -2.9890    1.5780 C.3       1 <0>        -0.0943
     17 C10        -5.2284   -4.4951    1.8355 C.3       1 <0>        -0.0614
     18 C11        -6.6460   -4.9649    1.6332 C.ar      1 <0>        -0.0756
     19 C12        -7.5321   -4.9651    2.6942 C.ar      1 <0>        -0.1114
     20 C13        -8.8324   -5.3960    2.5087 C.ar      1 <0>        -0.1171
     21 C14        -9.2467   -5.8262    1.2621 C.ar      1 <0>        -0.0843
     22 C15        -8.3609   -5.8251    0.2008 C.ar      1 <0>        -0.1139
     23 C16        -7.0618   -5.3902    0.3854 C.ar      1 <0>        -0.1122
     24 C17       -10.6640   -6.2969    1.0601 C.3       1 <0>        -0.0563
     25 C18       -11.3478   -5.4198    0.0093 C.3       1 <0>        -0.1442
     26 C19       -10.6556   -7.7508    0.5836 C.3       1 <0>        -0.1440
     27 C20        -1.0001    0.2445    3.2878 C.2       1 <0>         0.4881
     28 O2         -0.4498    0.9474    4.1183 O.co2     1 <0>        -0.6946
     29 O3         -0.8989   -0.9688    3.3527 O.co2     1 <0>        -0.6614
     30 H4          1.0255    1.6525   -0.9016 H         1 <0>         0.0777
     31 H5         -0.3605    1.0398   -1.8353 H         1 <0>         0.0611
     32 H6         -0.6346    2.0093   -0.3680 H         1 <0>         0.0604
     33 H7          0.8019   -2.0107   -0.1174 H         1 <0>         0.0887
     34 H8          0.5298   -1.2272   -1.6923 H         1 <0>         0.0915
     35 H9          3.2583   -1.5195   -1.3033 H         1 <0>         0.0819
     36 H10        -3.0422    1.8018    3.7337 H         1 <0>         0.0893
     37 H11        -3.5848    2.1467    2.0571 H         1 <0>         0.0655
     38 H12        -3.8211   -0.4749    3.6392 H         1 <0>         0.0953
     39 H13        -5.0726    0.3445    2.6484 H         1 <0>         0.0750
     40 H14        -5.8070   -2.4664    2.2719 H         1 <0>         0.0753
     41 H15        -5.4586   -2.7785    0.5545 H         1 <0>         0.0725
     42 H16        -4.5700   -5.0177    1.1416 H         1 <0>         0.0799
     43 H17        -4.9184   -4.7057    2.8590 H         1 <0>         0.0820
     44 H18        -7.2083   -4.6290    3.6682 H         1 <0>         0.1231
     45 H19        -9.5244   -5.3969    3.3378 H         1 <0>         0.1190
     46 H20        -8.6846   -6.1615   -0.7730 H         1 <0>         0.1184
     47 H21        -6.3708   -5.3858   -0.4446 H         1 <0>         0.1216
     48 H22       -11.2080   -6.2264    2.0020 H         1 <0>         0.0755
     49 H23       -12.3729   -5.7603   -0.1368 H         1 <0>         0.0561
     50 H24       -11.3538   -4.3841    0.3487 H         1 <0>         0.0558
     51 H25       -10.8038   -5.4904   -0.9326 H         1 <0>         0.0564
     52 H26       -10.1684   -8.3756    1.3322 H         1 <0>         0.0556
     53 H27       -11.6807   -8.0912    0.4375 H         1 <0>         0.0560
     54 H28       -10.1116   -7.8213   -0.3583 H         1 <0>         0.0564
@<TRIPOS>BOND
     1    1    2 1
     2    1   30 1
     3    1   31 1
     4    1   32 1
     5    2    3 1
     6    2    4 1
     7    2    6 1
     8    4    5 1
     9    4   33 1
    10    4   34 1
    11    5   35 1
    12    6    7 2
    13    6    8 am
    14    8   13 1
    15    8    9 1
    16    9   10 1
    17    9   11 1
    18    9   27 1
    19   11   12 1
    20   11   36 1
    21   11   37 1
    22   12   13 1
    23   12   38 1
    24   12   39 1
    25   13   14 1
    26   13   15 1
    27   15   16 1
    28   16   17 1
    29   16   40 1
    30   16   41 1
    31   17   18 1
    32   17   42 1
    33   17   43 1
    34   18   23 ar
    35   18   19 ar
    36   19   20 ar
    37   19   44 1
    38   20   21 ar
    39   20   45 1
    40   21   22 ar
    41   21   24 1
    42   22   23 ar
    43   22   46 1
    44   23   47 1
    45   24   25 1
    46   24   26 1
    47   24   48 1
    48   25   49 1
    49   25   50 1
    50   25   51 1
    51   26   52 1
    52   26   53 1
    53   26   54 1
    54   27   28 2
    55   27   29 1
@<TRIPOS>MOLECULE
CHEMBL465576
   33    32     0     0     0
SMALL
USER_CHARGES

@<TRIPOS>ATOM
      1 C1         -0.0187    1.5258    0.0104 C.3       1 <0>        -0.1228
      2 C2          0.0021   -0.0041    0.0020 C.3       1 <0>        -0.1623
      3 H1          0.5293   -0.3651    0.8851 H         1 <0>         0.0598
      4 C3          0.7182   -0.4975   -1.2568 C.3       1 <0>        -0.0890
      5 C4          2.1873   -0.0730   -1.2073 C.3       1 <0>        -0.1226
      6 C5          2.9035   -0.5664   -2.4661 C.3       1 <0>        -0.1140
      7 C6          4.3726   -0.1420   -2.4165 C.3       1 <0>        -0.1646
      8 C7          5.0779   -0.6280   -3.6564 C.2       1 <0>         0.3472
      9 O1          4.4685   -1.2497   -4.4933 O.2       1 <0>        -0.4240
     10 C8          6.5438   -0.3382   -3.8519 C.3       1 <0>        -0.0244
     11 H2          7.0805   -0.5376   -2.9243 H         1 <0>         0.1706
     12 C9          6.7259    1.1303   -4.2409 C.3       1 <0>        -0.1793
     13 N1          7.0747   -1.1968   -4.9191 N.4       1 <0>        -0.6290
     14 C10        -1.4117   -0.5257    0.0127 C.2       1 <0>         0.4922
     15 O2         -1.8097   -1.2271   -0.9017 O.co2     1 <0>        -0.6993
     16 O3         -2.1576   -0.2463    0.9358 O.co2     1 <0>        -0.6994
     17 H3          1.0039    1.9031    0.0027 H         1 <0>         0.0364
     18 H4         -0.5459    1.8868   -0.8726 H         1 <0>         0.0439
     19 H5         -0.5289    1.8773    0.9072 H         1 <0>         0.0553
     20 H6          0.6556   -1.5845   -1.3079 H         1 <0>         0.0606
     21 H7          0.2444   -0.0644   -2.1377 H         1 <0>         0.0576
     22 H8          2.2499    1.0140   -1.1561 H         1 <0>         0.0627
     23 H9          2.6611   -0.5061   -0.3263 H         1 <0>         0.0586
     24 H10         2.8409   -1.6534   -2.5172 H         1 <0>         0.0707
     25 H11         2.4296   -0.1334   -3.3470 H         1 <0>         0.0711
     26 H12         4.4352    0.9450   -2.3654 H         1 <0>         0.1135
     27 H13         4.8464   -0.5751   -1.5356 H         1 <0>         0.1134
     28 H14         7.7862    1.3400   -4.3823 H         1 <0>         0.0958
     29 H15         6.1893    1.3297   -5.1684 H         1 <0>         0.0871
     30 H16         6.3320    1.7675   -3.4490 H         1 <0>         0.1166
     31 H17         6.5779   -1.0122   -5.7777 H         1 <0>         0.4390
     32 H18         8.0562   -1.0028   -5.0499 H         1 <0>         0.4392
     33 H19         6.9546   -2.1653   -4.6625 H         1 <0>         0.4396
@<TRIPOS>BOND
     1    1    2 1
     2    1   17 1
     3    1   18 1
     4    1   19 1
     5    2    3 1
     6    2    4 1
     7    2   14 1
     8    4    5 1
     9    4   20 1
    10    4   21 1
    11    5    6 1
    12    5   22 1
    13    5   23 1
    14    6    7 1
    15    6   24 1
    16    6   25 1
    17    7    8 1
    18    7   26 1
    19    7   27 1
    20    8    9 2
    21    8   10 1
    22   10   11 1
    23   10   12 1
    24   10   13 1
    25   12   28 1
    26   12   29 1
    27   12   30 1
    28   13   31 1
    29   13   32 1
    30   13   33 1
    31   14   15 2
    32   14   16 1
@<TRIPOS>MOLECULE
CHEMBL465576__1
   32    31     0     0     0
SMALL
USER_CHARGES

@<TRIPOS>ATOM
      1 C1         -0.0187    1.5258    0.0104 C.3       1 <0>        -0.1219
      2 C2          0.0021   -0.0041    0.0020 C.3       1 <0>        -0.1615
      3 H1          0.5293   -0.3651    0.8851 H         1 <0>         0.0590
      4 C3          0.7182   -0.4975   -1.2568 C.3       1 <0>        -0.0886
      5 C4          2.1873   -0.0730   -1.2073 C.3       1 <0>        -0.1208
      6 C5          2.9035   -0.5664   -2.4661 C.3       1 <0>        -0.1105
      7 C6          4.3726   -0.1420   -2.4165 C.3       1 <0>        -0.1728
      8 C7          5.0779   -0.6280   -3.6564 C.2       1 <0>         0.3221
      9 O1          4.4685   -1.2497   -4.4933 O.2       1 <0>        -0.4525
     10 C8          6.5438   -0.3382   -3.8519 C.3       1 <0>         0.0387
     11 H2          7.0805   -0.5376   -2.9243 H         1 <0>         0.1089
     12 C9          6.7259    1.1303   -4.2409 C.3       1 <0>        -0.1387
     13 N1          7.0747   -1.1968   -4.9191 N.3       1 <0>        -0.8310
     14 C10        -1.4117   -0.5257    0.0127 C.2       1 <0>         0.4938
     15 O2         -1.8097   -1.2271   -0.9017 O.co2     1 <0>        -0.6990
     16 O3         -2.1576   -0.2463    0.9358 O.co2     1 <0>        -0.7053
     17 H3          1.0039    1.9031    0.0027 H         1 <0>         0.0387
     18 H4         -0.5459    1.8868   -0.8726 H         1 <0>         0.0429
     19 H5         -0.5289    1.8773    0.9072 H         1 <0>         0.0522
     20 H6          0.6556   -1.5845   -1.3079 H         1 <0>         0.0591
     21 H7          0.2444   -0.0644   -2.1377 H         1 <0>         0.0559
     22 H8          2.2499    1.0140   -1.1561 H         1 <0>         0.0591
     23 H9          2.6611   -0.5061   -0.3263 H         1 <0>         0.0551
     24 H10         2.8409   -1.6534   -2.5172 H         1 <0>         0.0644
     25 H11         2.4296   -0.1334   -3.3470 H         1 <0>         0.0646
     26 H12         4.4352    0.9450   -2.3654 H         1 <0>         0.0980
     27 H13         4.8464   -0.5751   -1.5356 H         1 <0>         0.0970
     28 H14         6.3320    1.7675   -3.4490 H         1 <0>         0.0691
     29 H15         7.7862    1.3400   -4.3823 H         1 <0>         0.0746
     30 H16         6.1893    1.3297   -5.1684 H         1 <0>         0.0577
     31 H17         7.0249   -2.1703   -4.6583 H         1 <0>         0.3445
     32 H18         6.5931   -1.0307   -5.7900 H         1 <0>         0.3474
@<TRIPOS>BOND
     1    1    2 1
     2    1   17 1
     3    1   18 1
     4    1   19 1
     5    2    3 1
     6    2    4 1
     7    2   14 1
     8    4    5 1
     9    4   20 1
    10    4   21 1
    11    5    6 1
    12    5   22 1
    13    5   23 1
    14    6    7 1
    15    6   24 1
    16    6   25 1
    17    7    8 1
    18    7   26 1
    19    7   27 1
    20    8    9 2
    21    8   10 1
    22   10   11 1
    23   10   12 1
    24   10   13 1
    25   12   28 1
    26   12   29 1
    27   12   30 1
    28   13   31 1
    29   13   32 1
    30   14   15 2
    31   14   16 1
@<TRIPOS>MOLECULE
CHEMBL162668
   47    49     0     0     0
SMALL
USER_CHARGES

@<TRIPOS>ATOM
      1 C1         -0.0167    1.3781    0.0096 C.ar      1 <0>        -0.1215
      2 C2          1.1709    2.0855    0.0021 C.ar      1 <0>        -0.1173
      3 C3          2.3773    1.4107   -0.0130 C.ar      1 <0>        -0.1152
      4 C4          2.3960    0.0285   -0.0201 C.ar      1 <0>        -0.0796
      5 C5          1.2084   -0.6789   -0.0117 C.ar      1 <0>        -0.1152
      6 C6          0.0021   -0.0041    0.0020 C.ar      1 <0>        -0.1173
      7 C7          3.7112   -0.7071   -0.0376 C.3       1 <0>        -0.0485
      8 C8          4.1644   -0.9594    1.3773 C.ar      1 <0>        -0.0640
      9 C9          4.9521   -0.0277    2.0273 C.ar      1 <0>        -0.1099
     10 C10         5.3679   -0.2592    3.3252 C.ar      1 <0>        -0.1111
     11 C11         4.9956   -1.4221    3.9732 C.ar      1 <0>        -0.1042
     12 C12         4.2072   -2.3534    3.3235 C.ar      1 <0>        -0.1113
     13 C13         3.7879   -2.1200    2.0272 C.ar      1 <0>        -0.1101
     14 C14         5.4497   -1.6748    5.3878 C.3       1 <0>        -0.0720
     15 C15         4.4191   -1.1041    6.3639 C.3       1 <0>        -0.1427
     16 C16         4.8801   -1.3607    7.8001 C.3       1 <0>        -0.0063
     17 N1          3.8905   -0.8127    8.7373 N.4       1 <0>        -0.3949
     18 C17         2.6325   -1.5996    8.6719 C.3       1 <0>        -0.0072
     19 C18         1.9539   -1.2969   10.0314 C.3       1 <0>        -0.1462
     20 C19         3.1496   -1.2402   11.0097 C.3       1 <0>        -0.1455
     21 C20         4.3771   -0.9451   10.1277 C.3       1 <0>        -0.0087
     22 H1         -0.9591    1.9053    0.0259 H         1 <0>         0.1228
     23 H2          1.1563    3.1654    0.0076 H         1 <0>         0.1231
     24 H3          3.3051    1.9634   -0.0196 H         1 <0>         0.1204
     25 H4          1.2231   -1.7588   -0.0176 H         1 <0>         0.1203
     26 H5         -0.9258   -0.5567    0.0082 H         1 <0>         0.1230
     27 H6          3.5884   -1.6586   -0.5549 H         1 <0>         0.0857
     28 H7          4.4573   -0.1052   -0.5563 H         1 <0>         0.0858
     29 H8          5.2429    0.8808    1.5210 H         1 <0>         0.1245
     30 H9          5.9838    0.4684    3.8327 H         1 <0>         0.1211
     31 H10         3.9167   -3.2621    3.8297 H         1 <0>         0.1209
     32 H11         3.1689   -2.8458    1.5209 H         1 <0>         0.1244
     33 H12         5.5495   -2.7479    5.5511 H         1 <0>         0.0818
     34 H13         6.4126   -1.1912    5.5522 H         1 <0>         0.0821
     35 H14         4.3193   -0.0310    6.2006 H         1 <0>         0.0872
     36 H15         3.4562   -1.5877    6.1995 H         1 <0>         0.0871
     37 H16         4.9799   -2.4338    7.9634 H         1 <0>         0.1295
     38 H17         5.8430   -0.8771    7.9645 H         1 <0>         0.1301
     39 H18         2.0081   -1.2589    7.8460 H         1 <0>         0.1345
     40 H19         2.8488   -2.6638    8.5784 H         1 <0>         0.1335
     41 H20         1.4361   -0.3382    9.9991 H         1 <0>         0.0977
     42 H21         1.2678   -2.0979   10.3069 H         1 <0>         0.1164
     43 H22         3.0057   -0.4414   11.7372 H         1 <0>         0.1049
     44 H23         3.2694   -2.1976   11.5166 H         1 <0>         0.1035
     45 H24         5.0892   -1.7676   10.1953 H         1 <0>         0.1304
     46 H25         4.8483   -0.0153   10.4463 H         1 <0>         0.1316
     47 H26         3.7075    0.1562    8.5235 H         1 <0>         0.4265
@<TRIPOS>BOND
     1    1    6 ar
     2    1    2 ar
     3    1   22 1
     4    2    3 ar
     5    2   23 1
     6    3    4 ar
     7    3   24 1
     8    4    5 ar
     9    4    7 1
    10    5    6 ar
    11    5   25 1
    12    6   26 1
    13    7    8 1
    14    7   27 1
    15    7   28 1
    16    8   13 ar
    17    8    9 ar
    18    9   10 ar
    19    9   29 1
    20   10   11 ar
    21   10   30 1
    22   11   12 ar
    23   11   14 1
    24   12   13 ar
    25   12   31 1
    26   13   32 1
    27   14   15 1
    28   14   33 1
    29   14   34 1
    30   15   16 1
    31   15   35 1
    32   15   36 1
    33   16   17 1
    34   16   37 1
    35   16   38 1
    36   17   21 1
    37   17   18 1
    38   17   47 1
    39   18   19 1
    40   18   39 1
    41   18   40 1
    42   19   20 1
    43   19   41 1
    44   19   42 1
    45   20   21 1
    46   20   43 1
    47   20   44 1
    48   21   45 1
    49   21   46 1
@<TRIPOS>MOLECULE
CHEMBL578131
   41    43     0     0     0
SMALL
USER_CHARGES

@<TRIPOS>ATOM
      1 C1         -0.0167    1.3781    0.0096 C.ar      1 <0>        -0.1244
      2 C2          1.1709    2.0855    0.0021 C.ar      1 <0>        -0.1177
      3 C3          2.3773    1.4107   -0.0130 C.ar      1 <0>        -0.1152
      4 C4          2.3960    0.0285   -0.0201 C.ar      1 <0>        -0.0766
      5 C5          1.2084   -0.6789   -0.0117 C.ar      1 <0>        -0.1158
      6 C6          0.0021   -0.0041    0.0020 C.ar      1 <0>        -0.1181
      7 C7          3.7112   -0.7071   -0.0376 C.3       1 <0>        -0.0388
      8 C8          4.1644   -0.9594    1.3773 C.ar      1 <0>        -0.1128
      9 C9          4.9522   -0.0267    2.0264 C.ar      1 <0>        -0.0734
     10 C10         5.3694   -0.2559    3.3232 C.ar      1 <0>        -0.1481
     11 C11         4.9969   -1.4228    3.9745 C.ar      1 <0>         0.1272
     12 C12         4.2060   -2.3568    3.3213 C.ar      1 <0>        -0.2054
     13 C13         3.7871   -2.1206    2.0262 C.ar      1 <0>        -0.0728
     14 O1          5.4064   -1.6507    5.2502 O.3       1 <0>        -0.3149
     15 C14         4.9849   -2.8733    5.8582 C.3       1 <0>         0.0669
     16 C15         5.5391   -2.9523    7.2821 C.3       1 <0>        -0.0813
     17 C16         5.0945   -4.2417    7.9233 C.ar      1 <0>        -0.0412
     18 C17         3.9043   -4.3088    8.6312 C.ar      1 <0>        -0.1678
     19 C18         3.5291   -5.5085    9.2056 C.ar      1 <0>         0.1020
     20 N1          4.2885   -6.5800    9.0867 N.ar      1 <0>        -0.4854
     21 C19         5.4265   -6.5529    8.4210 C.ar      1 <0>         0.1020
     22 C20         5.8633   -5.3904    7.8145 C.ar      1 <0>        -0.1678
     23 H1         -0.9591    1.9053    0.0259 H         1 <0>         0.1209
     24 H2          1.1563    3.1654    0.0076 H         1 <0>         0.1217
     25 H3          3.3051    1.9634   -0.0196 H         1 <0>         0.1207
     26 H4          1.2231   -1.7588   -0.0176 H         1 <0>         0.1197
     27 H5         -0.9258   -0.5567    0.0082 H         1 <0>         0.1213
     28 H6          3.5884   -1.6586   -0.5549 H         1 <0>         0.0816
     29 H7          4.4573   -0.1052   -0.5563 H         1 <0>         0.0826
     30 H8          5.2420    0.8815    1.5189 H         1 <0>         0.1288
     31 H9          5.9853    0.4726    3.8295 H         1 <0>         0.1312
     32 H10         3.9147   -3.2660    3.8262 H         1 <0>         0.1263
     33 H11         3.1678   -2.8454    1.5188 H         1 <0>         0.1237
     34 H12         3.8958   -2.9068    5.8898 H         1 <0>         0.0650
     35 H13         5.3576   -3.7160    5.2759 H         1 <0>         0.0652
     36 H14         6.6281   -2.9189    7.2505 H         1 <0>         0.0905
     37 H15         5.1664   -2.1096    7.8643 H         1 <0>         0.0904
     38 H16         3.2784   -3.4345    8.7327 H         1 <0>         0.1367
     39 H17         2.6034   -5.5691    9.7587 H         1 <0>         0.1581
     40 H18         6.0221   -7.4507    8.3453 H         1 <0>         0.1581
     41 H19         6.7938   -5.3758    7.2664 H         1 <0>         0.1368
@<TRIPOS>BOND
     1    1    6 ar
     2    1    2 ar
     3    1   23 1
     4    2    3 ar
     5    2   24 1
     6    3    4 ar
     7    3   25 1
     8    4    5 ar
     9    4    7 1
    10    5    6 ar
    11    5   26 1
    12    6   27 1
    13    7    8 1
    14    7   28 1
    15    7   29 1
    16    8   13 ar
    17    8    9 ar
    18    9   10 ar
    19    9   30 1
    20   10   11 ar
    21   10   31 1
    22   11   12 ar
    23   11   14 1
    24   12   13 ar
    25   12   32 1
    26   13   33 1
    27   14   15 1
    28   15   16 1
    29   15   34 1
    30   15   35 1
    31   16   17 1
    32   16   36 1
    33   16   37 1
    34   17   22 ar
    35   17   18 ar
    36   18   19 ar
    37   18   38 1
    38   19   20 ar
    39   19   39 1
    40   20   21 ar
    41   21   22 ar
    42   21   40 1
    43   22   41 1
@<TRIPOS>MOLECULE
CHEMBL565599
   43    45     0     0     0
SMALL
USER_CHARGES

@<TRIPOS>ATOM
      1 C1          0.0305    1.3176   -0.4434 C.ar      1 <0>        -0.0397
      2 C2          1.2233    2.0027   -0.4918 C.ar      1 <0>        -0.1531
      3 C3          2.4088    1.3643   -0.1441 C.ar      1 <0>         0.1459
      4 C4          2.3952    0.0318    0.2537 C.ar      1 <0>        -0.2138
      5 C5          1.2070   -0.6609    0.3055 C.ar      1 <0>        -0.0152
      6 C6          0.0120   -0.0228   -0.0433 C.ar      1 <0>        -0.1846
      7 C7         -1.2631   -0.7606    0.0105 C.2       1 <0>         0.4397
      8 O1         -1.2989   -1.8783    0.4870 O.2       1 <0>        -0.4304
      9 C8         -2.5004   -0.1402   -0.5159 C.ar      1 <0>        -0.1123
     10 C9         -2.4588    0.7305   -1.6100 C.ar      1 <0>        -0.1480
     11 C10        -3.6373    1.2864   -2.0684 C.ar      1 <0>         0.0998
     12 N1         -4.7881    1.0062   -1.4897 N.ar      1 <0>        -0.4639
     13 C11        -4.8720    0.1914   -0.4569 C.ar      1 <0>         0.1046
     14 C12        -3.7442   -0.4129    0.0634 C.ar      1 <0>        -0.1212
     15 O2          3.5824    2.0434   -0.1937 O.3       1 <0>        -0.3207
     16 C13         4.7624    1.3274    0.1765 C.3       1 <0>         0.0250
     17 C14         5.9769    2.2504    0.0591 C.3       1 <0>         0.0012
     18 N2          5.8604    3.3399    1.0375 N.4       1 <0>        -0.3919
     19 C15         4.7075    4.1983    0.6914 C.3       1 <0>        -0.0025
     20 C16         5.1594    5.6341    1.0572 C.3       1 <0>        -0.1456
     21 C17         6.6575    5.6031    0.6552 C.3       1 <0>        -0.1421
     22 C18         7.0833    4.1632    1.0114 C.3       1 <0>        -0.0135
     23 H1         -0.8902    1.8153   -0.7096 H         1 <0>         0.1523
     24 H2          1.2386    3.0375   -0.8005 H         1 <0>         0.1422
     25 H3          3.3183   -0.4602    0.5221 H         1 <0>         0.1365
     26 H4          1.1974   -1.6958    0.6142 H         1 <0>         0.1442
     27 H5         -1.5195    0.9648   -2.0888 H         1 <0>         0.1463
     28 H6         -3.6155    1.9600   -2.9123 H         1 <0>         0.1657
     29 H7         -5.8363   -0.0093   -0.0138 H         1 <0>         0.1677
     30 H8         -3.8210   -1.0830    0.9069 H         1 <0>         0.1464
     31 H9          4.6685    0.9795    1.2052 H         1 <0>         0.0892
     32 H10         4.8910    0.4716   -0.4862 H         1 <0>         0.1126
     33 H11         6.8858    1.6816    0.2552 H         1 <0>         0.1507
     34 H12         6.0197    2.6684   -0.9467 H         1 <0>         0.1415
     35 H13         4.4893    4.1291   -0.3743 H         1 <0>         0.1377
     36 H14         3.8336    3.9146    1.2778 H         1 <0>         0.1338
     37 H15         4.6139    6.3757    0.4737 H         1 <0>         0.1167
     38 H16         5.0455    5.8191    2.1253 H         1 <0>         0.0972
     39 H17         6.7738    5.7862   -0.4130 H         1 <0>         0.0988
     40 H18         7.2275    6.3283    1.2360 H         1 <0>         0.1128
     41 H19         7.5606    4.1493    1.9913 H         1 <0>         0.1330
     42 H20         7.7707    3.7822    0.2562 H         1 <0>         0.1321
     43 H21         5.7296    2.9553    1.9612 H         1 <0>         0.4249
@<TRIPOS>BOND
     1    1    6 ar
     2    1    2 ar
     3    1   23 1
     4    2    3 ar
     5    2   24 1
     6    3    4 ar
     7    3   15 1
     8    4    5 ar
     9    4   25 1
    10    5    6 ar
    11    5   26 1
    12    6    7 1
    13    7    8 2
    14    7    9 1
    15    9   14 ar
    16    9   10 ar
    17   10   11 ar
    18   10   27 1
    19   11   12 ar
    20   11   28 1
    21   12   13 ar
    22   13   14 ar
    23   13   29 1
    24   14   30 1
    25   15   16 1
    26   16   17 1
    27   16   31 1
    28   16   32 1
    29   17   18 1
    30   17   33 1
    31   17   34 1
    32   18   22 1
    33   18   19 1
    34   18   43 1
    35   19   20 1
    36   19   35 1
    37   19   36 1
    38   20   21 1
    39   20   37 1
    40   20   38 1
    41   21   22 1
    42   21   39 1
    43   21   40 1
    44   22   41 1
    45   22   42 1
@<TRIPOS>MOLECULE
CHEMBL119124
   52    53     0     0     0
SMALL
USER_CHARGES

@<TRIPOS>ATOM
      1 C1         -0.0178    1.4648    0.0101 C.3       1 <0>        -0.0624
      2 N1          0.0021   -0.0041    0.0020 N.4       1 <0>        -0.3836
      3 C2         -1.3761   -0.5125    0.0124 C.3       1 <0>        -0.0053
      4 C3         -2.0780   -0.1101   -1.2861 C.3       1 <0>        -0.1505
      5 C4         -3.5134   -0.6397   -1.2753 C.3       1 <0>         0.0627
      6 O1         -4.1690   -0.2638   -2.4881 O.3       1 <0>        -0.3138
      7 C5         -5.4605   -0.6587   -2.6393 C.ar      1 <0>         0.1175
      8 C6         -6.0858   -1.3879   -1.6384 C.ar      1 <0>        -0.2036
      9 C7         -7.3989   -1.7877   -1.7942 C.ar      1 <0>        -0.0738
     10 C8         -8.0898   -1.4621   -2.9468 C.ar      1 <0>        -0.1043
     11 C9         -7.4687   -0.7358   -3.9461 C.ar      1 <0>        -0.0712
     12 C10        -6.1577   -0.3284   -3.7923 C.ar      1 <0>        -0.1412
     13 C11        -9.5220   -1.9000   -3.1144 C.3       1 <0>        -0.0368
     14 C12       -10.4395   -0.8380   -2.5653 C.ar      1 <0>        -0.1325
     15 C13       -10.8275   -0.8652   -1.2342 C.ar      1 <0>        -0.0719
     16 C14       -11.6726    0.1321   -0.7729 C.ar      1 <0>        -0.1695
     17 C15       -12.0974    1.1135   -1.6487 C.ar      1 <0>         0.0966
     18 N2        -11.7083    1.1076   -2.9085 N.ar      1 <0>        -0.4811
     19 C16       -10.9002    0.1783   -3.3803 C.ar      1 <0>         0.1042
     20 C17         0.7126   -0.4907    1.1921 C.3       1 <0>         0.0011
     21 C18         2.1805   -0.0656    1.1191 C.3       1 <0>        -0.1461
     22 C19         2.9094   -0.5648    2.3400 C.2       1 <0>         0.4667
     23 O2          2.3156   -1.1959    3.1821 O.2       1 <0>        -0.4964
     24 O3          4.2182   -0.3084    2.4919 O.3       1 <0>        -0.3446
     25 C20         4.8450   -0.8119    3.6733 C.3       1 <0>         0.0315
     26 H1          1.0047    1.8421    0.0024 H         1 <0>         0.1278
     27 H2         -0.5450    1.8259   -0.8730 H         1 <0>         0.1308
     28 H3         -0.5280    1.8163    0.9069 H         1 <0>         0.1272
     29 H4         -1.3618   -1.5992    0.0960 H         1 <0>         0.1374
     30 H5         -1.9129   -0.0898    0.8617 H         1 <0>         0.1365
     31 H6         -2.0923    0.9766   -1.3697 H         1 <0>         0.1006
     32 H7         -1.5412   -0.5328   -2.1354 H         1 <0>         0.1004
     33 H8         -3.4991   -1.7264   -1.1917 H         1 <0>         0.0727
     34 H9         -4.0502   -0.2170   -0.4260 H         1 <0>         0.0720
     35 H10        -5.5464   -1.6431   -0.7382 H         1 <0>         0.1252
     36 H11        -7.8862   -2.3554   -1.0153 H         1 <0>         0.1269
     37 H12        -8.0103   -0.4830   -4.8456 H         1 <0>         0.1346
     38 H13        -5.6743    0.2427   -4.5712 H         1 <0>         0.1334
     39 H14        -9.7341   -2.0515   -4.1728 H         1 <0>         0.0896
     40 H15        -9.6822   -2.8332   -2.5745 H         1 <0>         0.0866
     41 H16       -10.4799   -1.6451   -0.5729 H         1 <0>         0.1321
     42 H17       -11.9953    0.1420    0.2578 H         1 <0>         0.1364
     43 H18       -12.7559    1.8940   -1.2971 H         1 <0>         0.1572
     44 H19       -10.5988    0.2093   -4.4170 H         1 <0>         0.1535
     45 H20         0.2557   -0.0671    2.0865 H         1 <0>         0.1427
     46 H21         0.6508   -1.5782    1.2328 H         1 <0>         0.1434
     47 H22         2.6374   -0.4891    0.2247 H         1 <0>         0.1314
     48 H23         2.2422    1.0219    1.0785 H         1 <0>         0.1307
     49 H24         4.3594   -0.3868    4.5517 H         1 <0>         0.0686
     50 H25         4.7545   -1.8979    3.6979 H         1 <0>         0.0687
     51 H26         5.8993   -0.5351    3.6713 H         1 <0>         0.1137
     52 H27         0.4744   -0.3295   -0.8281 H         1 <0>         0.4280
@<TRIPOS>BOND
     1    1    2 1
     2    1   26 1
     3    1   27 1
     4    1   28 1
     5    2    3 1
     6    2   20 1
     7    2   52 1
     8    3    4 1
     9    3   29 1
    10    3   30 1
    11    4    5 1
    12    4   31 1
    13    4   32 1
    14    5    6 1
    15    5   33 1
    16    5   34 1
    17    6    7 1
    18    7   12 ar
    19    7    8 ar
    20    8    9 ar
    21    8   35 1
    22    9   10 ar
    23    9   36 1
    24   10   11 ar
    25   10   13 1
    26   11   12 ar
    27   11   37 1
    28   12   38 1
    29   13   14 1
    30   13   39 1
    31   13   40 1
    32   14   19 ar
    33   14   15 ar
    34   15   16 ar
    35   15   41 1
    36   16   17 ar
    37   16   42 1
    38   17   18 ar
    39   17   43 1
    40   18   19 ar
    41   19   44 1
    42   20   21 1
    43   20   45 1
    44   20   46 1
    45   21   22 1
    46   21   47 1
    47   21   48 1
    48   22   23 2
    49   22   24 1
    50   24   25 1
    51   25   49 1
    52   25   50 1
    53   25   51 1
@<TRIPOS>MOLECULE
CHEMBL119124__1
   51    52     0     0     0
SMALL
USER_CHARGES

@<TRIPOS>ATOM
      1 C1         -0.0178    1.4648    0.0101 C.3       1 <0>         0.0118
      2 N1          0.0021   -0.0041    0.0020 N.3       1 <0>        -0.5408
      3 C2          0.7062   -0.5275    1.1802 C.3       1 <0>         0.0599
      4 C3         -0.0853   -0.1811    2.4430 C.3       1 <0>        -0.1164
      5 C4          0.6480   -0.7263    3.6701 C.3       1 <0>         0.0612
      6 O1         -0.0912   -0.4028    4.8495 O.3       1 <0>        -0.3136
      7 C5          0.4266   -0.8177    6.0355 C.ar      1 <0>         0.1302
      8 C6          1.6247   -1.5167    6.0640 C.ar      1 <0>        -0.2065
      9 C7          2.1493   -1.9369    7.2709 C.ar      1 <0>        -0.0731
     10 C8          1.4811   -1.6618    8.4497 C.ar      1 <0>        -0.1187
     11 C9          0.2867   -0.9657    8.4240 C.ar      1 <0>        -0.0727
     12 C10        -0.2389   -0.5380    7.2202 C.ar      1 <0>        -0.1486
     13 C11         2.0554   -2.1219    9.7649 C.3       1 <0>        -0.0331
     14 C12         2.9583   -1.0510   10.3208 C.ar      1 <0>        -0.1277
     15 C13         4.3073   -1.0336    9.9998 C.ar      1 <0>        -0.0720
     16 C14         5.0998   -0.0297   10.5344 C.ar      1 <0>        -0.1699
     17 C15         4.5233    0.9139   11.3637 C.ar      1 <0>         0.0929
     18 N2          3.2365    0.8661   11.6477 N.ar      1 <0>        -0.4825
     19 C16         2.4514   -0.0707   11.1523 C.ar      1 <0>         0.1032
     20 C17         0.5996   -0.5156   -1.2387 C.3       1 <0>         0.0657
     21 C18        -0.2998   -0.1573   -2.4234 C.3       1 <0>        -0.1121
     22 C19         0.3131   -0.6821   -3.6962 C.2       1 <0>         0.4615
     23 O2          1.3617   -1.2813   -3.6594 O.2       1 <0>        -0.5075
     24 O3         -0.3059   -0.4839   -4.8706 O.3       1 <0>        -0.3541
     25 C20         0.3319   -1.0087   -6.0368 C.3       1 <0>         0.0327
     26 H1          1.0047    1.8421    0.0024 H         1 <0>         0.0297
     27 H2         -0.5450    1.8259   -0.8730 H         1 <0>         0.0728
     28 H3         -0.5280    1.8163    0.9069 H         1 <0>         0.0759
     29 H4          0.8004   -1.6101    1.0960 H         1 <0>         0.0805
     30 H5          1.6983   -0.0800    1.2392 H         1 <0>         0.0402
     31 H6         -0.1795    0.9015    2.5272 H         1 <0>         0.0762
     32 H7         -1.0775   -0.6287    2.3841 H         1 <0>         0.0854
     33 H8          0.7422   -1.8090    3.5859 H         1 <0>         0.0641
     34 H9          1.6402   -0.2788    3.7290 H         1 <0>         0.0611
     35 H10         2.1466   -1.7324    5.1434 H         1 <0>         0.1273
     36 H11         3.0819   -2.4811    7.2936 H         1 <0>         0.1232
     37 H12        -0.2334   -0.7524    9.3461 H         1 <0>         0.1299
     38 H13        -1.1696    0.0095    7.2009 H         1 <0>         0.1319
     39 H14         1.2449   -2.3146   10.4677 H         1 <0>         0.0867
     40 H15         2.6283   -3.0364    9.6112 H         1 <0>         0.0841
     41 H16         4.7304   -1.7846    9.3491 H         1 <0>         0.1324
     42 H17         6.1545    0.0144   10.3060 H         1 <0>         0.1350
     43 H18         5.1338    1.6993   11.7842 H         1 <0>         0.1553
     44 H19         1.4009   -0.0744   11.4033 H         1 <0>         0.1534
     45 H20         1.5829   -0.0671   -1.3803 H         1 <0>         0.0469
     46 H21         0.7003   -1.5990   -1.1736 H         1 <0>         0.0865
     47 H22        -1.2831   -0.6058   -2.2818 H         1 <0>         0.1175
     48 H23        -0.4006    0.9261   -2.4884 H         1 <0>         0.1079
     49 H24         1.3182   -0.5574   -6.1457 H         1 <0>         0.0609
     50 H25         0.4356   -2.0893   -5.9390 H         1 <0>         0.0616
     51 H26        -0.2715   -0.7795   -6.9151 H         1 <0>         0.1037
@<TRIPOS>BOND
     1    1    2 1
     2    1   26 1
     3    1   27 1
     4    1   28 1
     5    2    3 1
     6    2   20 1
     7    3    4 1
     8    3   29 1
     9    3   30 1
    10    4    5 1
    11    4   31 1
    12    4   32 1
    13    5    6 1
    14    5   33 1
    15    5   34 1
    16    6    7 1
    17    7   12 ar
    18    7    8 ar
    19    8    9 ar
    20    8   35 1
    21    9   10 ar
    22    9   36 1
    23   10   11 ar
    24   10   13 1
    25   11   12 ar
    26   11   37 1
    27   12   38 1
    28   13   14 1
    29   13   39 1
    30   13   40 1
    31   14   19 ar
    32   14   15 ar
    33   15   16 ar
    34   15   41 1
    35   16   17 ar
    36   16   42 1
    37   17   18 ar
    38   17   43 1
    39   18   19 ar
    40   19   44 1
    41   20   21 1
    42   20   45 1
    43   20   46 1
    44   21   22 1
    45   21   47 1
    46   21   48 1
    47   22   23 2
    48   22   24 1
    49   24   25 1
    50   25   49 1
    51   25   50 1
    52   25   51 1
@<TRIPOS>MOLECULE
CHEMBL83291
   54    55     0     0     0
SMALL
USER_CHARGES

@<TRIPOS>ATOM
      1 C1         -0.4289    0.7996    0.7073 C.ar      1 <0>        -0.1300
      2 C2          0.6189    1.6712    0.4764 C.ar      1 <0>        -0.1203
      3 C3          1.8934    1.1794    0.2650 C.ar      1 <0>        -0.1213
      4 C4          2.1202   -0.1841    0.2850 C.ar      1 <0>        -0.0715
      5 C5          1.0726   -1.0557    0.5169 C.ar      1 <0>        -0.1149
      6 C6         -0.2022   -0.5639    0.7269 C.ar      1 <0>        -0.1169
      7 C7          3.5094   -0.7204    0.0536 C.3       1 <0>        -0.0733
      8 C8          4.2343   -0.8542    1.3943 C.3       1 <0>        -0.0839
      9 H1          3.6387   -1.4685    2.0697 H         1 <0>         0.1060
     10 C9          4.4322    0.5334    2.0078 C.3       1 <0>        -0.1250
     11 C10         5.3347    1.3510    1.1201 C.2       1 <0>         0.5130
     12 O1          5.8476    0.8440    0.1451 O.2       1 <0>        -0.4774
     13 N1          5.5717    2.6458    1.4097 N.am      1 <0>        -0.6022
     14 O2          6.4197    3.4141    0.5756 O.3       1 <0>        -0.3171
     15 C11         5.5768   -1.5035    1.1769 C.2       1 <0>         0.5222
     16 O3          5.9199   -1.8273    0.0597 O.2       1 <0>        -0.5237
     17 N2          6.3960   -1.7243    2.2241 N.am      1 <0>        -0.6989
     18 C12         7.7011   -2.3555    2.0127 C.3       1 <0>         0.0820
     19 H2          8.1107   -2.0314    1.0561 H         1 <0>         0.0839
     20 C13         8.6529   -1.9484    3.1393 C.3       1 <0>        -0.1061
     21 C14         8.9149   -0.4428    3.0665 C.3       1 <0>        -0.0788
     22 C15         9.6593   -0.1167    1.7702 C.3       1 <0>        -0.1156
     23 C16         9.9213    1.3889    1.6974 C.3       1 <0>        -0.1130
     24 C17        10.7715    1.8171    2.8951 C.3       1 <0>        -0.1175
     25 C18        10.0272    1.4910    4.1915 C.3       1 <0>        -0.1146
     26 C19         9.7652   -0.0146    4.2643 C.3       1 <0>        -0.1150
     27 C20         7.5396   -3.8538    2.0083 C.2       1 <0>         0.4906
     28 O4          8.2933   -4.5462    1.3458 O.co2     1 <0>        -0.6971
     29 O5          6.6553   -4.3736    2.6673 O.co2     1 <0>        -0.6953
     30 H3         -1.4237    1.1841    0.8769 H         1 <0>         0.1175
     31 H4          0.4417    2.7365    0.4607 H         1 <0>         0.1178
     32 H5          2.7119    1.8603    0.0839 H         1 <0>         0.1163
     33 H6          1.2497   -2.1210    0.5322 H         1 <0>         0.1249
     34 H7         -1.0207   -1.2449    0.9076 H         1 <0>         0.1201
     35 H8          3.4465   -1.6979   -0.4246 H         1 <0>         0.0855
     36 H9          4.0606   -0.0354   -0.5907 H         1 <0>         0.0956
     37 H10         3.4667    1.0305    2.1010 H         1 <0>         0.1059
     38 H11         4.8860    0.4333    2.9938 H         1 <0>         0.1019
     39 H12         5.1615    3.0513    2.1895 H         1 <0>         0.4025
     40 H13         6.5292    4.3307    0.8635 H         1 <0>         0.3806
     41 H14         6.1215   -1.4653    3.1177 H         1 <0>         0.3842
     42 H15         8.2027   -2.1928    4.1014 H         1 <0>         0.0617
     43 H16         9.5946   -2.4867    3.0317 H         1 <0>         0.0726
     44 H17         7.9656    0.0925    3.0849 H         1 <0>         0.0626
     45 H18        10.6086   -0.6521    1.7518 H         1 <0>         0.0583
     46 H19         9.0535   -0.4218    0.9168 H         1 <0>         0.0690
     47 H20        10.4516    1.6212    0.7738 H         1 <0>         0.0549
     48 H21         8.9720    1.9242    1.7157 H         1 <0>         0.0586
     49 H22        11.7208    1.2818    2.8768 H         1 <0>         0.0587
     50 H23        10.9582    2.8897    2.8433 H         1 <0>         0.0530
     51 H24        10.6329    1.7961    5.0448 H         1 <0>         0.0548
     52 H25         9.0779    2.0264    4.2099 H         1 <0>         0.0555
     53 H26         9.2349   -0.2469    5.1879 H         1 <0>         0.0583
     54 H27        10.7145   -0.5499    4.2459 H         1 <0>         0.0608
@<TRIPOS>BOND
     1    1    6 ar
     2    1    2 ar
     3    1   30 1
     4    2    3 ar
     5    2   31 1
     6    3    4 ar
     7    3   32 1
     8    4    5 ar
     9    4    7 1
    10    5    6 ar
    11    5   33 1
    12    6   34 1
    13    7    8 1
    14    7   35 1
    15    7   36 1
    16    8    9 1
    17    8   10 1
    18    8   15 1
    19   10   11 1
    20   10   37 1
    21   10   38 1
    22   11   12 2
    23   11   13 am
    24   13   14 1
    25   13   39 1
    26   14   40 1
    27   15   16 2
    28   15   17 am
    29   17   18 1
    30   17   41 1
    31   18   19 1
    32   18   20 1
    33   18   27 1
    34   20   21 1
    35   20   42 1
    36   20   43 1
    37   21   26 1
    38   21   22 1
    39   21   44 1
    40   22   23 1
    41   22   45 1
    42   22   46 1
    43   23   24 1
    44   23   47 1
    45   23   48 1
    46   24   25 1
    47   24   49 1
    48   24   50 1
    49   25   26 1
    50   25   51 1
    51   25   52 1
    52   26   53 1
    53   26   54 1
    54   27   28 2
    55   27   29 1
@<TRIPOS>MOLECULE
CHEMBL164353
   54    55     0     0     0
SMALL
USER_CHARGES

@<TRIPOS>ATOM
      1 C1         -0.0187    1.5258    0.0104 C.3       1 <0>        -0.1551
      2 C2          0.0021   -0.0041    0.0020 C.3       1 <0>        -0.1265
      3 C3         -1.4333   -0.5336    0.0129 C.3       1 <0>        -0.1211
      4 C4         -1.4126   -2.0635    0.0045 C.3       1 <0>        -0.1203
      5 C5         -2.8479   -2.5931    0.0153 C.3       1 <0>        -0.1168
      6 C6         -2.8272   -4.1229    0.0069 C.3       1 <0>        -0.1205
      7 C7         -4.2626   -4.6525    0.0178 C.3       1 <0>         0.0579
      8 O1         -4.2432   -6.0813    0.0099 O.3       1 <0>        -0.3116
      9 C8         -5.4463   -6.7151    0.0180 C.ar      1 <0>         0.1166
     10 C9         -6.6196   -5.9756    0.0274 C.ar      1 <0>        -0.1705
     11 C10        -7.8417   -6.6194    0.0357 C.ar      1 <0>        -0.0989
     12 C11        -7.8955   -8.0053    0.0340 C.ar      1 <0>         0.0690
     13 C12        -6.7221   -8.7448    0.0236 C.ar      1 <0>        -0.1591
     14 C13        -5.5001   -8.1010    0.0111 C.ar      1 <0>        -0.1139
     15 O2         -9.0985   -8.6391    0.0430 O.3       1 <0>        -0.3256
     16 C14        -9.0791  -10.0680    0.0406 C.3       1 <0>         0.0281
     17 C15       -10.5145  -10.5975    0.0517 C.3       1 <0>         0.0015
     18 N1        -11.1869  -10.2160   -1.1974 N.4       1 <0>        -0.3910
     19 C16       -11.3344   -8.7460   -1.2541 C.3       1 <0>        -0.0011
     20 C17       -12.7019   -8.5120   -1.9433 C.3       1 <0>        -0.1459
     21 C18       -13.5495   -9.6730   -1.3599 C.3       1 <0>        -0.1421
     22 C19       -12.5289  -10.8247   -1.2445 C.3       1 <0>        -0.0134
     23 H1          1.0039    1.9031    0.0027 H         1 <0>         0.0552
     24 H2         -0.5459    1.8868   -0.8726 H         1 <0>         0.0536
     25 H3         -0.5289    1.8773    0.9072 H         1 <0>         0.0537
     26 H4          0.5123   -0.3556   -0.8948 H         1 <0>         0.0612
     27 H5          0.5293   -0.3651    0.8851 H         1 <0>         0.0613
     28 H6         -1.9435   -0.1821    0.9097 H         1 <0>         0.0617
     29 H7         -1.9605   -0.1726   -0.8702 H         1 <0>         0.0615
     30 H8         -0.9024   -2.4150   -0.8923 H         1 <0>         0.0642
     31 H9         -0.8854   -2.4246    0.8875 H         1 <0>         0.0644
     32 H10        -3.3581   -2.2415    0.9121 H         1 <0>         0.0657
     33 H11        -3.3751   -2.2320   -0.8677 H         1 <0>         0.0654
     34 H12        -2.3170   -4.4744   -0.8899 H         1 <0>         0.0757
     35 H13        -2.3000   -4.4840    0.8900 H         1 <0>         0.0760
     36 H14        -4.7728   -4.3010    0.9146 H         1 <0>         0.0646
     37 H15        -4.7898   -4.2914   -0.8653 H         1 <0>         0.0641
     38 H16        -6.5778   -4.8964    0.0287 H         1 <0>         0.1401
     39 H17        -8.7554   -6.0435    0.0437 H         1 <0>         0.1348
     40 H18        -6.7640   -9.8240    0.0227 H         1 <0>         0.1335
     41 H19        -4.5865   -8.6768   -0.0008 H         1 <0>         0.1394
     42 H20        -8.5678  -10.4229   -0.8541 H         1 <0>         0.0847
     43 H21        -8.5531  -10.4256    0.9258 H         1 <0>         0.1081
     44 H22       -10.5003  -11.6839    0.1395 H         1 <0>         0.1485
     45 H23       -11.0524  -10.1716    0.8986 H         1 <0>         0.1400
     46 H24       -11.3396   -8.3261   -0.2482 H         1 <0>         0.1375
     47 H25       -10.5312   -8.3065   -1.8455 H         1 <0>         0.1342
     48 H26       -13.1196   -7.5448   -1.6636 H         1 <0>         0.1159
     49 H27       -12.6133   -8.5990   -3.0262 H         1 <0>         0.0967
     50 H28       -13.9435   -9.4074   -0.3789 H         1 <0>         0.0984
     51 H29       -14.3572   -9.9406   -2.0412 H         1 <0>         0.1122
     52 H30       -12.6089  -11.4794   -2.1123 H         1 <0>         0.1323
     53 H31       -12.7112  -11.3916   -0.3316 H         1 <0>         0.1316
     54 H32       -10.6431  -10.5313   -1.9867 H         1 <0>         0.4245
@<TRIPOS>BOND
     1    1    2 1
     2    1   23 1
     3    1   24 1
     4    1   25 1
     5    2    3 1
     6    2   26 1
     7    2   27 1
     8    3    4 1
     9    3   28 1
    10    3   29 1
    11    4    5 1
    12    4   30 1
    13    4   31 1
    14    5    6 1
    15    5   32 1
    16    5   33 1
    17    6    7 1
    18    6   34 1
    19    6   35 1
    20    7    8 1
    21    7   36 1
    22    7   37 1
    23    8    9 1
    24    9   14 ar
    25    9   10 ar
    26   10   11 ar
    27   10   38 1
    28   11   12 ar
    29   11   39 1
    30   12   13 ar
    31   12   15 1
    32   13   14 ar
    33   13   40 1
    34   14   41 1
    35   15   16 1
    36   16   17 1
    37   16   42 1
    38   16   43 1
    39   17   18 1
    40   17   44 1
    41   17   45 1
    42   18   22 1
    43   18   19 1
    44   18   54 1
    45   19   20 1
    46   19   46 1
    47   19   47 1
    48   20   21 1
    49   20   48 1
    50   20   49 1
    51   21   22 1
    52   21   50 1
    53   21   51 1
    54   22   52 1
    55   22   53 1
@<TRIPOS>MOLECULE
CHEMBL565605
   48    50     0     0     0
SMALL
USER_CHARGES

@<TRIPOS>ATOM
      1 C1          0.1376    1.3208   -1.0127 C.ar      1 <0>        -0.1030
      2 C2          1.2730    2.0474   -0.7118 C.ar      1 <0>        -0.1537
      3 C3          2.4307    1.3931   -0.3167 C.ar      1 <0>         0.0981
      4 C4          2.4478    0.0090   -0.2238 C.ar      1 <0>        -0.1029
      5 C5          1.3123   -0.7173   -0.5247 C.ar      1 <0>        -0.1639
      6 C6          0.1548   -0.0630   -0.9198 C.ar      1 <0>         0.0883
      7 O1         -0.9631   -0.7783   -1.2161 O.3       1 <0>        -0.3187
      8 C7         -0.8739   -2.1997   -1.0988 C.3       1 <0>         0.0360
      9 C8         -2.2188   -2.8274   -1.4700 C.3       1 <0>         0.0277
     10 H1         -2.1898   -3.9015   -1.2865 H         1 <0>         0.1571
     11 C9         -3.3468   -2.1828   -0.6371 C.3       1 <0>        -0.1290
     12 C10        -3.9194   -1.1073   -1.5975 C.3       1 <0>        -0.1366
     13 C11        -3.7896   -1.8128   -2.9704 C.3       1 <0>        -0.0050
     14 N1         -2.5179   -2.5692   -2.8905 N.4       1 <0>        -0.3905
     15 C12        -2.6516   -3.8444   -3.6073 C.3       1 <0>         0.0151
     16 C13        -2.8377   -3.5726   -5.1014 C.3       1 <0>        -0.2141
     17 C14        -2.9749   -4.8808   -5.8368 C.2       1 <0>         0.4973
     18 O2         -2.9280   -5.9331   -5.2228 O.co2     1 <0>        -0.6876
     19 O3         -3.1326   -4.8870   -7.0458 O.co2     1 <0>        -0.6722
     20 O4          3.5486    2.1082   -0.0209 O.3       1 <0>        -0.2549
     21 C15         3.4841    3.4622   -0.1181 C.ar      1 <0>         0.0833
     22 C16         3.1058    4.2203    0.9807 C.ar      1 <0>        -0.1123
     23 C17         3.0409    5.5965    0.8798 C.ar      1 <0>        -0.0960
     24 C18         3.3528    6.2189   -0.3160 C.ar      1 <0>        -0.0322
     25 C19         3.7303    5.4647   -1.4129 C.ar      1 <0>        -0.0957
     26 C20         3.8020    4.0887   -1.3146 C.ar      1 <0>        -0.1120
     27 Cl1         3.2698    7.9485   -0.4403 Cl        1 <0>        -0.0561
     28 H2         -0.7650    1.8304   -1.3160 H         1 <0>         0.1367
     29 H3          1.2597    3.1249   -0.7845 H         1 <0>         0.1375
     30 H4          3.3492   -0.5005    0.0835 H         1 <0>         0.1407
     31 H5          1.3256   -1.7948   -0.4524 H         1 <0>         0.1377
     32 H6         -0.1011   -2.5719   -1.7715 H         1 <0>         0.0867
     33 H7         -0.6203   -2.4644   -0.0723 H         1 <0>         0.1057
     34 H8         -4.1093   -2.9199   -0.3853 H         1 <0>         0.0993
     35 H9         -2.9442   -1.7199    0.2638 H         1 <0>         0.1089
     36 H10        -4.9627   -0.8928   -1.3659 H         1 <0>         0.1099
     37 H11        -3.3194   -0.1979   -1.5676 H         1 <0>         0.1013
     38 H12        -4.6256   -2.4945   -3.1274 H         1 <0>         0.1310
     39 H13        -3.7436   -1.0764   -3.7727 H         1 <0>         0.1297
     40 H14        -1.7528   -4.4422   -3.4560 H         1 <0>         0.1269
     41 H15        -3.5170   -4.3866   -3.2261 H         1 <0>         0.1293
     42 H16        -3.7365   -2.9748   -5.2527 H         1 <0>         0.0806
     43 H17        -1.9724   -3.0305   -5.4827 H         1 <0>         0.0788
     44 H18         2.8620    3.7348    1.9141 H         1 <0>         0.1421
     45 H19         2.7461    6.1869    1.7347 H         1 <0>         0.1440
     46 H20         3.9733    5.9525   -2.3454 H         1 <0>         0.1443
     47 H21         4.1013    3.5007   -2.1696 H         1 <0>         0.1425
     48 H22        -1.7729   -2.0266   -3.3012 H         1 <0>         0.4201
@<TRIPOS>BOND
     1    1    6 ar
     2    1    2 ar
     3    1   28 1
     4    2    3 ar
     5    2   29 1
     6    3    4 ar
     7    3   20 1
     8    4    5 ar
     9    4   30 1
    10    5    6 ar
    11    5   31 1
    12    6    7 1
    13    7    8 1
    14    8    9 1
    15    8   32 1
    16    8   33 1
    17    9   10 1
    18    9   14 1
    19    9   11 1
    20   11   12 1
    21   11   34 1
    22   11   35 1
    23   12   13 1
    24   12   36 1
    25   12   37 1
    26   13   14 1
    27   13   38 1
    28   13   39 1
    29   14   15 1
    30   14   48 1
    31   15   16 1
    32   15   40 1
    33   15   41 1
    34   16   17 1
    35   16   42 1
    36   16   43 1
    37   17   18 2
    38   17   19 1
    39   20   21 1
    40   21   26 ar
    41   21   22 ar
    42   22   23 ar
    43   22   44 1
    44   23   24 ar
    45   23   45 1
    46   24   25 ar
    47   24   27 1
    48   25   26 ar
    49   25   46 1
    50   26   47 1
@<TRIPOS>MOLECULE
CHEMBL578345
   49    52     0     0     0
SMALL
USER_CHARGES

@<TRIPOS>ATOM
      1 C1         -0.0167    1.3791    0.0096 C.ar      1 <0>        -0.1089
      2 C2          1.1675    2.0878    0.0021 C.ar      1 <0>        -0.1085
      3 C3          2.3836    1.4075   -0.0131 C.ar      1 <0>        -0.0246
      4 C4          2.3965    0.0140   -0.0207 C.ar      1 <0>        -0.1091
      5 C5          1.2063   -0.6845   -0.0130 C.ar      1 <0>        -0.1098
      6 C6          0.0021   -0.0041    0.0020 C.ar      1 <0>        -0.0824
      7 C7         -1.2943   -0.7725    0.0107 C.3       1 <0>        -0.0443
      8 C8         -1.7405   -1.0210   -1.4071 C.ar      1 <0>        -0.0909
      9 C9         -2.5510   -0.1014   -2.0468 C.ar      1 <0>        -0.0724
     10 C10        -2.9617   -0.3271   -3.3463 C.ar      1 <0>        -0.1374
     11 C11        -2.5599   -1.4774   -4.0097 C.ar      1 <0>         0.1070
     12 C12        -1.7462   -2.3983   -3.3658 C.ar      1 <0>        -0.1982
     13 C13        -1.3340   -2.1654   -2.0680 C.ar      1 <0>        -0.0729
     14 O1         -2.9630   -1.7019   -5.2879 O.3       1 <0>        -0.3269
     15 C14        -2.5108   -2.9070   -5.9086 C.3       1 <0>         0.0336
     16 C15        -3.0622   -2.9848   -7.3336 C.3       1 <0>         0.0338
     17 H1         -2.8100   -3.9441   -7.7855 H         1 <0>         0.1602
     18 C16        -4.5973   -2.7773   -7.3300 C.3       1 <0>        -0.1386
     19 C17        -4.8481   -2.2681   -8.7738 C.3       1 <0>        -0.1427
     20 C18        -3.5967   -1.4127   -9.0630 C.3       1 <0>        -0.0078
     21 N1         -2.5306   -1.8745   -8.1525 N.4       1 <0>        -0.5151
     22 C19         3.6599    2.1640   -0.0217 C.2       1 <0>        -0.0872
     23 C20         4.8817    1.4982   -0.0423 C.2       1 <0>        -0.1535
     24 C21         6.0236    2.2222   -0.0500 C.2       1 <0>        -0.1679
     25 S1          5.4092    3.8977   -0.0283 S.3       1 <0>         0.0544
     26 C22         3.6623    3.5309   -0.0154 C.2       1 <0>        -0.1679
     27 H2         -0.9597    1.9052    0.0260 H         1 <0>         0.1235
     28 H3          1.1517    3.1677    0.0077 H         1 <0>         0.1245
     29 H4          3.3362   -0.5182   -0.0328 H         1 <0>         0.1250
     30 H5          1.2151   -1.7645   -0.0189 H         1 <0>         0.1221
     31 H6         -1.1480   -1.7261    0.5180 H         1 <0>         0.0860
     32 H7         -2.0555   -0.1949    0.5352 H         1 <0>         0.0870
     33 H8         -2.8635    0.7939   -1.5299 H         1 <0>         0.1348
     34 H9         -3.5954    0.3911   -3.8453 H         1 <0>         0.1322
     35 H10        -1.4321   -3.2945   -3.8801 H         1 <0>         0.1268
     36 H11        -0.6970   -2.8799   -1.5678 H         1 <0>         0.1298
     37 H12        -1.4212   -2.9130   -5.9397 H         1 <0>         0.0879
     38 H13        -2.8626   -3.7649   -5.3356 H         1 <0>         0.1097
     39 H14        -5.1180   -3.7182   -7.1519 H         1 <0>         0.1182
     40 H15        -4.8881   -2.0267   -6.5951 H         1 <0>         0.1100
     41 H16        -4.9136   -3.1032   -9.4711 H         1 <0>         0.1004
     42 H17        -5.7502   -1.6577   -8.8159 H         1 <0>         0.1145
     43 H18        -3.2839   -1.5512  -10.0980 H         1 <0>         0.1346
     44 H19        -3.8152   -0.3611   -8.8770 H         1 <0>         0.1335
     45 H20        -2.2456   -1.1157   -7.5516 H         1 <0>         0.4340
     46 H21         4.9174    0.4188   -0.0515 H         1 <0>         0.1364
     47 H22         7.0462    1.8753   -0.0654 H         1 <0>         0.1891
     48 H23         2.8245    4.2123   -0.0042 H         1 <0>         0.1872
     49 H24        -1.7393   -2.1969   -8.6890 H         1 <0>         0.4310
@<TRIPOS>BOND
     1    1    6 ar
     2    1    2 ar
     3    1   27 1
     4    2    3 ar
     5    2   28 1
     6    3    4 ar
     7    3   22 1
     8    4    5 ar
     9    4   29 1
    10    5    6 ar
    11    5   30 1
    12    6    7 1
    13    7    8 1
    14    7   31 1
    15    7   32 1
    16    8   13 ar
    17    8    9 ar
    18    9   10 ar
    19    9   33 1
    20   10   11 ar
    21   10   34 1
    22   11   12 ar
    23   11   14 1
    24   12   13 ar
    25   12   35 1
    26   13   36 1
    27   14   15 1
    28   15   16 1
    29   15   37 1
    30   15   38 1
    31   16   17 1
    32   16   21 1
    33   16   18 1
    34   18   19 1
    35   18   39 1
    36   18   40 1
    37   19   20 1
    38   19   41 1
    39   19   42 1
    40   20   21 1
    41   20   43 1
    42   20   44 1
    43   21   45 1
    44   21   49 1
    45   22   26 2
    46   22   23 1
    47   23   24 2
    48   23   46 1
    49   24   25 1
    50   24   47 1
    51   25   26 1
    52   26   48 1
@<TRIPOS>MOLECULE
CHEMBL518607
   62    64     0     0     0
SMALL
USER_CHARGES

@<TRIPOS>ATOM
      1 C1         -0.1269    1.7247    0.1003 C.3       1 <0>         0.0064
      2 N1         -0.7685    0.4211    0.3170 N.3       1 <0>        -0.5266
      3 C2         -0.1461   -0.2916    1.4408 C.3       1 <0>         0.0267
      4 C3         -0.4184    0.4686    2.7403 C.3       1 <0>        -0.0107
      5 N2          0.2040   -0.2441    3.8641 N.4       1 <0>        -0.3700
      6 C4         -0.4450   -1.5508    4.0349 C.3       1 <0>        -0.0633
      7 C5          0.0458    0.5456    5.0926 C.3       1 <0>        -0.0277
      8 C6          0.7889   -0.1243    6.2196 C.2       1 <0>         0.5017
      9 O1          1.3911   -1.1580    6.0190 O.2       1 <0>        -0.5117
     10 N3          0.7844    0.4251    7.4503 N.am      1 <0>        -0.6386
     11 C7          1.3284   -0.2779    8.5332 C.ar      1 <0>         0.0856
     12 C8          0.8715   -0.0317    9.8210 C.ar      1 <0>        -0.0946
     13 C9          1.4080   -0.7248   10.8879 C.ar      1 <0>        -0.1722
     14 C10         2.4036   -1.6670   10.6733 C.ar      1 <0>         0.1255
     15 C11         2.8606   -1.9134    9.3866 C.ar      1 <0>        -0.1280
     16 C12         2.3208   -1.2251    8.3183 C.ar      1 <0>        -0.0887
     17 O2          2.9319   -2.3488   11.7242 O.3       1 <0>        -0.2547
     18 C13         2.3343   -2.2142   12.9371 C.ar      1 <0>         0.0753
     19 C14         1.1521   -2.8882   13.2082 C.ar      1 <0>        -0.1316
     20 C15         0.5467   -2.7496   14.4420 C.ar      1 <0>        -0.1044
     21 C16         1.1175   -1.9397   15.4065 C.ar      1 <0>        -0.1140
     22 C17         2.2955   -1.2669   15.1390 C.ar      1 <0>        -0.1038
     23 C18         2.9083   -1.4069   13.9089 C.ar      1 <0>        -0.1212
     24 C19        -0.7344   -0.3922   -0.9058 C.3       1 <0>         0.1070
     25 C20        -1.5888    0.2563   -1.9644 C.ar      1 <0>        -0.1114
     26 C21        -2.9316   -0.0648   -2.0575 C.ar      1 <0>        -0.1135
     27 C22        -3.7196    0.5243   -3.0240 C.ar      1 <0>        -0.0871
     28 C23        -3.1590    1.4478   -3.9101 C.ar      1 <0>        -0.1188
     29 C24        -1.8026    1.7675   -3.8098 C.ar      1 <0>        -0.0863
     30 C25        -1.0280    1.1742   -2.8349 C.ar      1 <0>        -0.1305
     31 C26        -3.9953    2.0819   -4.9470 C.2       1 <0>         0.5143
     32 O3         -5.1821    1.7997   -5.0325 O.co2     1 <0>        -0.6826
     33 O4         -3.5016    2.8898   -5.7211 O.co2     1 <0>        -0.6829
     34 H1          0.9299    1.5772   -0.1217 H         1 <0>         0.0334
     35 H2         -0.6069    2.2311   -0.7371 H         1 <0>         0.0944
     36 H3         -0.2279    2.3332    0.9990 H         1 <0>         0.0645
     37 H4         -0.5660   -1.2949    1.5119 H         1 <0>         0.0976
     38 H5          0.9295   -0.3586    1.2775 H         1 <0>         0.0556
     39 H6          0.0015    1.4720    2.6692 H         1 <0>         0.1327
     40 H7         -1.4940    0.5356    2.9036 H         1 <0>         0.1436
     41 H8          0.0167   -2.0796    4.8687 H         1 <0>         0.1391
     42 H9         -1.5058   -1.4056    4.2395 H         1 <0>         0.1224
     43 H10        -0.3277   -2.1367    3.1233 H         1 <0>         0.1283
     44 H11         0.4488    1.5462    4.9358 H         1 <0>         0.1623
     45 H12        -1.0120    0.6156    5.3459 H         1 <0>         0.1646
     46 H13         0.4045    1.3071    7.5862 H         1 <0>         0.4207
     47 H14         0.0967    0.7019    9.9882 H         1 <0>         0.1338
     48 H15         1.0529   -0.5332   11.8897 H         1 <0>         0.1376
     49 H16         3.6356   -2.6470    9.2202 H         1 <0>         0.1412
     50 H17         2.6734   -1.4201    7.3163 H         1 <0>         0.1618
     51 H18         0.7055   -3.5203   12.4550 H         1 <0>         0.1300
     52 H19        -0.3735   -3.2740   14.6535 H         1 <0>         0.1325
     53 H20         0.6422   -1.8321   16.3703 H         1 <0>         0.1314
     54 H21         2.7391   -0.6347   15.8939 H         1 <0>         0.1340
     55 H22         3.8308   -0.8848   13.7021 H         1 <0>         0.1332
     56 H23         0.2925   -0.4675   -1.2636 H         1 <0>         0.0471
     57 H24        -1.1179   -1.3893   -0.6898 H         1 <0>         0.0836
     58 H25        -3.3636   -0.7788   -1.3718 H         1 <0>         0.1123
     59 H26        -4.7673    0.2722   -3.0960 H         1 <0>         0.1280
     60 H27        -1.3626    2.4804   -4.4914 H         1 <0>         0.1278
     61 H28         0.0196    1.4237   -2.7534 H         1 <0>         0.1091
     62 H29         1.1859   -0.3784    3.6747 H         1 <0>         0.4300
@<TRIPOS>BOND
     1    1    2 1
     2    1   34 1
     3    1   35 1
     4    1   36 1
     5    2    3 1
     6    2   24 1
     7    3    4 1
     8    3   37 1
     9    3   38 1
    10    4    5 1
    11    4   39 1
    12    4   40 1
    13    5    6 1
    14    5    7 1
    15    5   62 1
    16    6   41 1
    17    6   42 1
    18    6   43 1
    19    7    8 1
    20    7   44 1
    21    7   45 1
    22    8    9 2
    23    8   10 am
    24   10   11 1
    25   10   46 1
    26   11   16 ar
    27   11   12 ar
    28   12   13 ar
    29   12   47 1
    30   13   14 ar
    31   13   48 1
    32   14   15 ar
    33   14   17 1
    34   15   16 ar
    35   15   49 1
    36   16   50 1
    37   17   18 1
    38   18   23 ar
    39   18   19 ar
    40   19   20 ar
    41   19   51 1
    42   20   21 ar
    43   20   52 1
    44   21   22 ar
    45   21   53 1
    46   22   23 ar
    47   22   54 1
    48   23   55 1
    49   24   25 1
    50   24   56 1
    51   24   57 1
    52   25   30 ar
    53   25   26 ar
    54   26   27 ar
    55   26   58 1
    56   27   28 ar
    57   27   59 1
    58   28   29 ar
    59   28   31 1
    60   29   30 ar
    61   29   60 1
    62   30   61 1
    63   31   32 2
    64   31   33 1
@<TRIPOS>MOLECULE
CHEMBL518607__1
   62    64     0     0     0
SMALL
USER_CHARGES

@<TRIPOS>ATOM
      1 C1         -0.0113    1.5730    0.0018 C.3       1 <0>        -0.0556
      2 N1          0.1058    0.2956   -0.7141 N.4       1 <0>        -0.3830
      3 C2         -1.2139   -0.3450   -0.7917 C.3       1 <0>        -0.0085
      4 C3         -2.1482    0.5139   -1.6463 C.3       1 <0>         0.0273
      5 N2         -3.4679   -0.1267   -1.7240 N.3       1 <0>        -0.5157
      6 C4         -3.3939   -1.3978   -2.4566 C.3       1 <0>         0.0041
      7 C5         -4.4557    0.7747   -2.3321 C.3       1 <0>         0.0363
      8 C6         -5.8350    0.1887   -2.1737 C.2       1 <0>         0.5141
      9 O1         -5.9809   -0.8751   -1.6097 O.2       1 <0>        -0.4986
     10 N3         -6.9065    0.8468   -2.6588 N.am      1 <0>        -0.6665
     11 C7         -8.1641    0.2295   -2.6644 C.ar      1 <0>         0.1073
     12 C8         -9.1172    0.6035   -3.6024 C.ar      1 <0>        -0.1082
     13 C9        -10.3566   -0.0051   -3.6074 C.ar      1 <0>        -0.1714
     14 C10       -10.6497   -0.9903   -2.6754 C.ar      1 <0>         0.1106
     15 C11        -9.6978   -1.3644   -1.7378 C.ar      1 <0>        -0.1255
     16 C12        -8.4561   -0.7604   -1.7355 C.ar      1 <0>        -0.0958
     17 O2        -11.8703   -1.5889   -2.6805 O.3       1 <0>        -0.2583
     18 C13       -12.7040   -1.3288   -3.7215 C.ar      1 <0>         0.0814
     19 C14       -12.4961   -1.9424   -4.9486 C.ar      1 <0>        -0.1326
     20 C15       -13.3451   -1.6762   -6.0052 C.ar      1 <0>        -0.1050
     21 C16       -14.4011   -0.7989   -5.8410 C.ar      1 <0>        -0.1174
     22 C17       -14.6106   -0.1861   -4.6193 C.ar      1 <0>        -0.1046
     23 C18       -13.7682   -0.4535   -3.5577 C.ar      1 <0>        -0.1230
     24 C19         1.0361   -0.5852    0.0048 C.3       1 <0>         0.0538
     25 C20         2.4182    0.0150   -0.0220 C.ar      1 <0>        -0.1826
     26 C21         3.2822   -0.2921   -1.0584 C.ar      1 <0>        -0.1091
     27 C22         4.5487    0.2530   -1.0892 C.ar      1 <0>        -0.0849
     28 C23         4.9584    1.1175   -0.0709 C.ar      1 <0>        -0.0893
     29 C24         4.0805    1.4234    0.9720 C.ar      1 <0>        -0.0850
     30 C25         2.8151    0.8749    0.9870 C.ar      1 <0>        -0.1112
     31 C26         6.3119    1.7043   -0.0966 C.2       1 <0>         0.5089
     32 O3          7.0781    1.4343   -1.0107 O.co2     1 <0>        -0.6722
     33 O4          6.6675    2.4607    0.7961 O.co2     1 <0>        -0.6721
     34 H1          0.9680    2.0483    0.0594 H         1 <0>         0.1302
     35 H2         -0.7015    2.2265   -0.5316 H         1 <0>         0.1184
     36 H3         -0.3871    1.3920    1.0089 H         1 <0>         0.1223
     37 H4         -1.1128   -1.3318   -1.2435 H         1 <0>         0.1295
     38 H5         -1.6286   -0.4453    0.2113 H         1 <0>         0.1394
     39 H6         -2.2493    1.5007   -1.1946 H         1 <0>         0.0995
     40 H7         -1.7335    0.6142   -2.6493 H         1 <0>         0.0597
     41 H8         -2.7074   -2.0725   -1.9451 H         1 <0>         0.0741
     42 H9         -4.3843   -1.8508   -2.4992 H         1 <0>         0.0990
     43 H10        -3.0349   -1.2132   -3.4691 H         1 <0>         0.0328
     44 H11        -4.4144    1.7454   -1.8380 H         1 <0>         0.1132
     45 H12        -4.2322    0.8967   -3.3919 H         1 <0>         0.0771
     46 H13        -6.8069    1.7478   -3.0040 H         1 <0>         0.4121
     47 H14        -8.8892    1.3706   -4.3277 H         1 <0>         0.1295
     48 H15       -11.0980    0.2859   -4.3367 H         1 <0>         0.1328
     49 H16        -9.9265   -2.1313   -1.0126 H         1 <0>         0.1374
     50 H17        -7.7136   -1.0548   -1.0085 H         1 <0>         0.1637
     51 H18       -11.6710   -2.6272   -5.0775 H         1 <0>         0.1297
     52 H19       -13.1837   -2.1535   -6.9604 H         1 <0>         0.1310
     53 H20       -15.0633   -0.5916   -6.6686 H         1 <0>         0.1297
     54 H21       -15.4359    0.4991   -4.4939 H         1 <0>         0.1325
     55 H22       -13.9349    0.0219   -2.6024 H         1 <0>         0.1325
     56 H23         0.7075   -0.6947    1.0383 H         1 <0>         0.1315
     57 H24         1.0553   -1.5632   -0.4759 H         1 <0>         0.1307
     58 H25         2.9642   -0.9606   -1.8448 H         1 <0>         0.1217
     59 H26         5.2223    0.0119   -1.8982 H         1 <0>         0.1384
     60 H27         4.3905    2.0909    1.7624 H         1 <0>         0.1386
     61 H28         2.1338    1.1138    1.7902 H         1 <0>         0.1225
     62 H29         0.4537    0.4631   -1.6463 H         1 <0>         0.4227
@<TRIPOS>BOND
     1    1    2 1
     2    1   34 1
     3    1   35 1
     4    1   36 1
     5    2    3 1
     6    2   24 1
     7    2   62 1
     8    3    4 1
     9    3   37 1
    10    3   38 1
    11    4    5 1
    12    4   39 1
    13    4   40 1
    14    5    6 1
    15    5    7 1
    16    6   41 1
    17    6   42 1
    18    6   43 1
    19    7    8 1
    20    7   44 1
    21    7   45 1
    22    8    9 2
    23    8   10 am
    24   10   11 1
    25   10   46 1
    26   11   16 ar
    27   11   12 ar
    28   12   13 ar
    29   12   47 1
    30   13   14 ar
    31   13   48 1
    32   14   15 ar
    33   14   17 1
    34   15   16 ar
    35   15   49 1
    36   16   50 1
    37   17   18 1
    38   18   23 ar
    39   18   19 ar
    40   19   20 ar
    41   19   51 1
    42   20   21 ar
    43   20   52 1
    44   21   22 ar
    45   21   53 1
    46   22   23 ar
    47   22   54 1
    48   23   55 1
    49   24   25 1
    50   24   56 1
    51   24   57 1
    52   25   30 ar
    53   25   26 ar
    54   26   27 ar
    55   26   58 1
    56   27   28 ar
    57   27   59 1
    58   28   29 ar
    59   28   31 1
    60   29   30 ar
    61   29   60 1
    62   30   61 1
    63   31   32 2
    64   31   33 1
@<TRIPOS>MOLECULE
CHEMBL576512
   38    40     0     0     0
SMALL
USER_CHARGES

@<TRIPOS>ATOM
      1 C1          2.5321    1.3184    3.4433 C.ar      1 <0>        -0.1492
      2 C2          2.5236   -0.0635    3.3969 C.ar      1 <0>        -0.0838
      3 C3          2.8757   -0.7190    2.2331 C.ar      1 <0>        -0.1984
      4 C4          3.2382    0.0107    1.1099 C.ar      1 <0>         0.1165
      5 C5          3.2459    1.3974    1.1591 C.ar      1 <0>        -0.1432
      6 C6          2.8929    2.0479    2.3254 C.ar      1 <0>        -0.0791
      7 O1          3.5855   -0.6316   -0.0361 O.3       1 <0>        -0.2561
      8 C7          3.6573   -1.9892   -0.0103 C.ar      1 <0>         0.0526
      9 C8          2.4944   -2.7454   -0.0255 C.ar      1 <0>        -0.0841
     10 C9          2.5665   -4.1243    0.0011 C.ar      1 <0>        -0.1712
     11 C10         3.8036   -4.7538    0.0426 C.ar      1 <0>         0.1972
     12 C11         4.9673   -3.9962    0.0573 C.ar      1 <0>        -0.1696
     13 C12         4.8937   -2.6175    0.0254 C.ar      1 <0>        -0.0719
     14 N1          3.8774   -6.1508    0.0700 N.pl3     1 <0>        -0.6449
     15 C13         5.1661   -6.8367    0.2512 C.3       1 <0>         0.0970
     16 C14         5.0138   -7.8680    1.3742 C.3       1 <0>        -0.0233
     17 N2          3.8896   -8.7614    1.0677 N.4       1 <0>        -0.5039
     18 C15         2.6341   -8.0001    1.0576 C.3       1 <0>        -0.0233
     19 C16         2.6678   -6.9753   -0.0754 C.3       1 <0>         0.0958
     20 H1          2.2521    1.8290    4.3529 H         1 <0>         0.1277
     21 H2          2.2417   -0.6310    4.2716 H         1 <0>         0.1252
     22 H3          2.8693   -1.7984    2.1975 H         1 <0>         0.1245
     23 H4          3.5277    1.9677    0.2862 H         1 <0>         0.1343
     24 H5          2.8983    3.1272    2.3641 H         1 <0>         0.1344
     25 H6          1.5323   -2.2557   -0.0578 H         1 <0>         0.1371
     26 H7          1.6610   -4.7128   -0.0101 H         1 <0>         0.1309
     27 H8          5.9297   -4.4851    0.0899 H         1 <0>         0.1323
     28 H9          5.7987   -2.0283    0.0328 H         1 <0>         0.1390
     29 H10         5.4459   -7.3410   -0.6737 H         1 <0>         0.0904
     30 H11         5.9326   -6.1106    0.5223 H         1 <0>         0.1271
     31 H12         5.9301   -8.4524    1.4578 H         1 <0>         0.1450
     32 H13         4.8232   -7.3540    2.3163 H         1 <0>         0.1347
     33 H14         4.0334   -9.1826    0.1622 H         1 <0>         0.4288
     34 H15         1.7968   -8.6817    0.9079 H         1 <0>         0.1452
     35 H16         2.5155   -7.4820    2.0093 H         1 <0>         0.1345
     36 H17         1.7832   -6.3407   -0.0202 H         1 <0>         0.1274
     37 H18         2.6910   -7.4938   -1.0339 H         1 <0>         0.0903
     38 H19         3.8366   -9.4858    1.7682 H         1 <0>         0.4343
@<TRIPOS>BOND
     1    1    6 ar
     2    1    2 ar
     3    1   20 1
     4    2    3 ar
     5    2   21 1
     6    3    4 ar
     7    3   22 1
     8    4    5 ar
     9    4    7 1
    10    5    6 ar
    11    5   23 1
    12    6   24 1
    13    7    8 1
    14    8   13 ar
    15    8    9 ar
    16    9   10 ar
    17    9   25 1
    18   10   11 ar
    19   10   26 1
    20   11   12 ar
    21   11   14 1
    22   12   13 ar
    23   12   27 1
    24   13   28 1
    25   14   19 1
    26   14   15 1
    27   15   16 1
    28   15   29 1
    29   15   30 1
    30   16   17 1
    31   16   31 1
    32   16   32 1
    33   17   18 1
    34   17   33 1
    35   17   38 1
    36   18   19 1
    37   18   34 1
    38   18   35 1
    39   19   36 1
    40   19   37 1
@<TRIPOS>MOLECULE
CHEMBL116174
   58    61     0     0     0
SMALL
USER_CHARGES

@<TRIPOS>ATOM
      1 C1         -0.8202    1.5128   -0.4382 C.3       1 <0>         0.0321
      2 O1         -0.7069    0.0899   -0.3715 O.3       1 <0>        -0.3502
      3 C2          0.0227   -0.5088   -1.3259 C.2       1 <0>         0.4574
      4 O2          0.5478    0.1534   -2.1895 O.2       1 <0>        -0.5074
      5 C3          0.1869   -2.0068   -1.3204 C.3       1 <0>        -0.1117
      6 C4          1.0571   -2.4288   -2.5060 C.3       1 <0>        -0.0925
      7 C5          0.2914   -2.2350   -3.8357 C.3       1 <0>        -0.1472
      8 C6          0.1798   -3.6703   -4.4345 C.3       1 <0>         0.0235
      9 C7          0.0438   -4.5242   -3.1252 C.3       1 <0>        -0.1437
     10 C8          1.3475   -3.9613   -2.4524 C.3       1 <0>        -0.0983
     11 C9          2.3599   -4.1941   -3.6167 C.3       1 <0>        -0.0108
     12 N1          1.5724   -4.0123   -4.8590 N.4       1 <0>        -0.3943
     13 C10         2.1383   -2.9171   -5.6578 C.3       1 <0>        -0.0049
     14 C11         3.4884   -3.3500   -6.2329 C.3       1 <0>         0.0290
     15 O3          3.2914   -4.4259   -7.1525 O.3       1 <0>        -0.3284
     16 C12         4.3987   -4.9316   -7.7569 C.ar      1 <0>         0.1084
     17 C13         5.6496   -4.4069   -7.4663 C.ar      1 <0>        -0.1988
     18 C14         6.7737   -4.9229   -8.0816 C.ar      1 <0>        -0.0730
     19 C15         6.6527   -5.9612   -8.9867 C.ar      1 <0>        -0.0923
     20 C16         5.4070   -6.4856   -9.2783 C.ar      1 <0>        -0.0724
     21 C17         4.2805   -5.9771   -8.6610 C.ar      1 <0>        -0.1382
     22 C18         7.8805   -6.5219   -9.6568 C.3       1 <0>        -0.0444
     23 C19         8.4379   -7.6471   -8.8236 C.ar      1 <0>        -0.0814
     24 C20         9.3722   -7.3816   -7.8399 C.ar      1 <0>        -0.1160
     25 C21         9.8835   -8.4137   -7.0756 C.ar      1 <0>        -0.1173
     26 C22         9.4603   -9.7113   -7.2947 C.ar      1 <0>        -0.1209
     27 C23         8.5253   -9.9767   -8.2777 C.ar      1 <0>        -0.1165
     28 C24         8.0108   -8.9440   -9.0391 C.ar      1 <0>        -0.1151
     29 H1          0.1718    1.9598   -0.3721 H         1 <0>         0.0646
     30 H2         -1.2843    1.7965   -1.3828 H         1 <0>         0.0639
     31 H3         -1.4344    1.8676    0.3894 H         1 <0>         0.1087
     32 H4          0.6643   -2.3166   -0.3908 H         1 <0>         0.1192
     33 H5         -0.7918   -2.4799   -1.4015 H         1 <0>         0.1141
     34 H6          1.9892   -1.8639   -2.5142 H         1 <0>         0.1039
     35 H7         -0.7000   -1.8231   -3.6473 H         1 <0>         0.1096
     36 H8          0.8531   -1.5853   -4.5070 H         1 <0>         0.1013
     37 H9         -0.5928   -3.8090   -5.1907 H         1 <0>         0.1712
     38 H10        -0.8532   -4.2711   -2.5600 H         1 <0>         0.1230
     39 H11         0.1115   -5.5940   -3.3226 H         1 <0>         0.1037
     40 H12         1.6109   -4.3698   -1.4768 H         1 <0>         0.1520
     41 H13         3.1656   -3.4616   -3.5693 H         1 <0>         0.1322
     42 H14         2.7640   -5.2053   -3.5698 H         1 <0>         0.1355
     43 H15         1.4575   -2.6727   -6.4732 H         1 <0>         0.1417
     44 H16         2.2772   -2.0403   -5.0253 H         1 <0>         0.1532
     45 H17         3.9492   -2.5090   -6.7510 H         1 <0>         0.1074
     46 H18         4.1397   -3.6789   -5.4231 H         1 <0>         0.0841
     47 H19         5.7446   -3.5954   -6.7600 H         1 <0>         0.1265
     48 H20         7.7478   -4.5148   -7.8558 H         1 <0>         0.1294
     49 H21         5.3150   -7.2963   -9.9858 H         1 <0>         0.1346
     50 H22         3.3082   -6.3900   -8.8858 H         1 <0>         0.1325
     51 H23         7.6154   -6.8983  -10.6448 H         1 <0>         0.0865
     52 H24         8.6306   -5.7373   -9.7561 H         1 <0>         0.0855
     53 H25         9.7029   -6.3678   -7.6688 H         1 <0>         0.1196
     54 H26        10.6140   -8.2064   -6.3076 H         1 <0>         0.1229
     55 H27         9.8603  -10.5178   -6.6980 H         1 <0>         0.1231
     56 H28         8.1949  -10.9906   -8.4491 H         1 <0>         0.1236
     57 H29         7.2776   -9.1509   -9.8046 H         1 <0>         0.1209
     58 H30         1.5702   -4.8672   -5.3950 H         1 <0>         0.4314
@<TRIPOS>BOND
     1    1    2 1
     2    1   29 1
     3    1   30 1
     4    1   31 1
     5    2    3 1
     6    3    4 2
     7    3    5 1
     8    5    6 1
     9    5   32 1
    10    5   33 1
    11    6   10 1
    12    6    7 1
    13    6   34 1
    14    7    8 1
    15    7   35 1
    16    7   36 1
    17    8   12 1
    18    8    9 1
    19    8   37 1
    20    9   10 1
    21    9   38 1
    22    9   39 1
    23   10   11 1
    24   10   40 1
    25   11   12 1
    26   11   41 1
    27   11   42 1
    28   12   13 1
    29   12   58 1
    30   13   14 1
    31   13   43 1
    32   13   44 1
    33   14   15 1
    34   14   45 1
    35   14   46 1
    36   15   16 1
    37   16   21 ar
    38   16   17 ar
    39   17   18 ar
    40   17   47 1
    41   18   19 ar
    42   18   48 1
    43   19   20 ar
    44   19   22 1
    45   20   21 ar
    46   20   49 1
    47   21   50 1
    48   22   23 1
    49   22   51 1
    50   22   52 1
    51   23   28 ar
    52   23   24 ar
    53   24   25 ar
    54   24   53 1
    55   25   26 ar
    56   25   54 1
    57   26   27 ar
    58   26   55 1
    59   27   28 ar
    60   27   56 1
    61   28   57 1
@<TRIPOS>MOLECULE
CHEMBL116174__1
   58    61     0     0     0
SMALL
USER_CHARGES

@<TRIPOS>ATOM
      1 C1         -0.1780    1.4178   -0.0791 C.3       1 <0>         0.0318
      2 O1         -0.0861   -0.0079   -0.0468 O.3       1 <0>        -0.3521
      3 C2          0.5232   -0.6030   -1.0843 C.2       1 <0>         0.4542
      4 O2          0.9639    0.0645   -1.9900 O.2       1 <0>        -0.4966
      5 C3          0.6575   -2.1036   -1.1196 C.3       1 <0>        -0.1196
      6 C4          1.3848   -2.5205   -2.3995 C.3       1 <0>        -0.0952
      7 C5          0.4689   -2.3261   -3.6305 C.3       1 <0>        -0.1377
      8 C6          0.3285   -3.7536   -4.2417 C.3       1 <0>         0.0235
      9 C7          1.7457   -4.3483   -3.9258 C.3       1 <0>        -0.1390
     10 C8          1.6836   -4.0522   -2.3839 C.3       1 <0>        -0.0951
     11 C9          0.3044   -4.7020   -2.0518 C.3       1 <0>        -0.0248
     12 N1         -0.5225   -4.5011   -3.2651 N.4       1 <0>        -0.3960
     13 C10        -0.9128   -5.8002   -3.8289 C.3       1 <0>         0.0003
     14 C11        -1.8824   -6.4999   -2.8744 C.3       1 <0>         0.0274
     15 O3         -3.0933   -5.7460   -2.7883 O.3       1 <0>        -0.3287
     16 C12        -4.0673   -6.2337   -1.9756 C.ar      1 <0>         0.1081
     17 C13        -3.8596   -7.4105   -1.2710 C.ar      1 <0>        -0.1986
     18 C14        -4.8510   -7.9040   -0.4452 C.ar      1 <0>        -0.0729
     19 C15        -6.0498   -7.2262   -0.3210 C.ar      1 <0>        -0.0919
     20 C16        -6.2594   -6.0533   -1.0225 C.ar      1 <0>        -0.0722
     21 C17        -5.2688   -5.5525   -1.8449 C.ar      1 <0>        -0.1382
     22 C18        -7.1298   -7.7670    0.5802 C.3       1 <0>        -0.0445
     23 C19        -6.9563   -7.2027    1.9668 C.ar      1 <0>        -0.0815
     24 C20        -6.1686   -7.8657    2.8892 C.ar      1 <0>        -0.1159
     25 C21        -6.0094   -7.3481    4.1611 C.ar      1 <0>        -0.1172
     26 C22        -6.6376   -6.1673    4.5104 C.ar      1 <0>        -0.1207
     27 C23        -7.4246   -5.5039    3.5877 C.ar      1 <0>        -0.1164
     28 C24        -7.5803   -6.0192    2.3144 C.ar      1 <0>        -0.1151
     29 H1          0.8238    1.8457   -0.1152 H         1 <0>         0.0661
     30 H2         -0.7367    1.7259   -0.9629 H         1 <0>         0.0643
     31 H3         -0.6912    1.7691    0.8160 H         1 <0>         0.1089
     32 H4          1.2274   -2.4378   -0.2526 H         1 <0>         0.1229
     33 H5         -0.3332   -2.5576   -1.1003 H         1 <0>         0.1011
     34 H6          2.3081   -1.9528   -2.5149 H         1 <0>         0.1172
     35 H7         -0.5055   -1.9460   -3.3236 H         1 <0>         0.0870
     36 H8          0.9337   -1.6493   -4.3475 H         1 <0>         0.1206
     37 H9          0.0024   -3.7937   -5.2810 H         1 <0>         0.1715
     38 H10         1.8007   -5.4160   -4.1381 H         1 <0>         0.1010
     39 H11         2.5440   -3.7941   -4.4196 H         1 <0>         0.1248
     40 H12         2.5389   -4.3721   -1.7888 H         1 <0>         0.1526
     41 H13         0.4267   -5.7661   -1.8495 H         1 <0>         0.1342
     42 H14        -0.1520   -4.2038   -1.1964 H         1 <0>         0.1373
     43 H15        -1.3987   -5.6469   -4.7925 H         1 <0>         0.1410
     44 H16        -0.0257   -6.4190   -3.9637 H         1 <0>         0.1482
     45 H17        -2.1027   -7.4997   -3.2485 H         1 <0>         0.1078
     46 H18        -1.4293   -6.5736   -1.8857 H         1 <0>         0.0844
     47 H19        -2.9237   -7.9407   -1.3682 H         1 <0>         0.1266
     48 H20        -4.6898   -8.8201    0.1036 H         1 <0>         0.1296
     49 H21        -7.1967   -5.5260   -0.9241 H         1 <0>         0.1345
     50 H22        -5.4313   -4.6340   -2.3892 H         1 <0>         0.1323
     51 H23        -8.1062   -7.4792    0.1904 H         1 <0>         0.0864
     52 H24        -7.0601   -8.8541    0.6190 H         1 <0>         0.0856
     53 H25        -5.6778   -8.7882    2.6163 H         1 <0>         0.1197
     54 H26        -5.3946   -7.8665    4.8820 H         1 <0>         0.1230
     55 H27        -6.5139   -5.7633    5.5043 H         1 <0>         0.1231
     56 H28        -7.9156   -4.5815    3.8607 H         1 <0>         0.1235
     57 H29        -8.1921   -5.4990    1.5924 H         1 <0>         0.1208
     58 H30        -1.3439   -3.9608   -3.0380 H         1 <0>         0.4288
@<TRIPOS>BOND
     1    1    2 1
     2    1   29 1
     3    1   30 1
     4    1   31 1
     5    2    3 1
     6    3    4 2
     7    3    5 1
     8    5    6 1
     9    5   32 1
    10    5   33 1
    11    6   10 1
    12    6    7 1
    13    6   34 1
    14    7    8 1
    15    7   35 1
    16    7   36 1
    17    8   12 1
    18    8    9 1
    19    8   37 1
    20    9   10 1
    21    9   38 1
    22    9   39 1
    23   10   11 1
    24   10   40 1
    25   11   12 1
    26   11   41 1
    27   11   42 1
    28   12   13 1
    29   12   58 1
    30   13   14 1
    31   13   43 1
    32   13   44 1
    33   14   15 1
    34   14   45 1
    35   14   46 1
    36   15   16 1
    37   16   21 ar
    38   16   17 ar
    39   17   18 ar
    40   17   47 1
    41   18   19 ar
    42   18   48 1
    43   19   20 ar
    44   19   22 1
    45   20   21 ar
    46   20   49 1
    47   21   50 1
    48   22   23 1
    49   22   51 1
    50   22   52 1
    51   23   28 ar
    52   23   24 ar
    53   24   25 ar
    54   24   53 1
    55   25   26 ar
    56   25   54 1
    57   26   27 ar
    58   26   55 1
    59   27   28 ar
    60   27   56 1
    61   28   57 1
@<TRIPOS>MOLECULE
CHEMBL116174__2
   58    61     0     0     0
SMALL
USER_CHARGES

@<TRIPOS>ATOM
      1 C1         -0.4891    1.2416    0.0277 C.3       1 <0>         0.0313
      2 O1         -0.2789   -0.1711    0.0735 O.3       1 <0>        -0.3522
      3 C2          0.3287   -0.7314   -0.9841 C.2       1 <0>         0.4520
      4 O2          0.6709   -0.0452   -1.9178 O.2       1 <0>        -0.4932
      5 C3          0.5842   -2.2164   -1.0068 C.3       1 <0>        -0.1232
      6 C4          1.2836   -2.5936   -2.3143 C.3       1 <0>        -0.0956
      7 C5          2.7451   -2.0878   -2.3121 C.3       1 <0>        -0.1461
      8 C6          3.6055   -3.3804   -2.4544 C.3       1 <0>         0.0237
      9 C7          2.6754   -4.2522   -3.3691 C.3       1 <0>        -0.1390
     10 C8          1.4161   -4.1439   -2.4356 C.3       1 <0>        -0.0952
     11 C9          2.0610   -4.5742   -1.0814 C.3       1 <0>        -0.0243
     12 N1          3.4569   -4.0801   -1.1411 N.4       1 <0>        -0.3935
     13 C10         3.7057   -3.1407   -0.0394 C.3       1 <0>        -0.0103
     14 C11         3.7225   -3.9031    1.2870 C.3       1 <0>         0.0285
     15 O3          4.8297   -4.8064    1.3032 O.3       1 <0>        -0.3269
     16 C12         4.9901   -5.5657    2.4187 C.ar      1 <0>         0.1077
     17 C13         4.0969   -5.4481    3.4737 C.ar      1 <0>        -0.1989
     18 C14         4.2619   -6.2215    4.6065 C.ar      1 <0>        -0.0728
     19 C15         5.3165   -7.1119    4.6894 C.ar      1 <0>        -0.0919
     20 C16         6.2083   -7.2307    3.6396 C.ar      1 <0>        -0.0722
     21 C17         6.0441   -6.4640    2.5021 C.ar      1 <0>        -0.1377
     22 C18         5.4944   -7.9540    5.9265 C.3       1 <0>        -0.0445
     23 C19         4.7419   -9.2496    5.7647 C.ar      1 <0>        -0.0816
     24 C20         3.4227   -9.3378    6.1685 C.ar      1 <0>        -0.1159
     25 C21         2.7325  -10.5262    6.0201 C.ar      1 <0>        -0.1172
     26 C22         3.3612  -11.6263    5.4675 C.ar      1 <0>        -0.1208
     27 C23         4.6800  -11.5379    5.0629 C.ar      1 <0>        -0.1164
     28 C24         5.3690  -10.3482    5.2074 C.ar      1 <0>        -0.1151
     29 H1          0.4715    1.7492   -0.0610 H         1 <0>         0.0647
     30 H2         -1.1113    1.4887   -0.8324 H         1 <0>         0.0668
     31 H3         -0.9876    1.5646    0.9416 H         1 <0>         0.1096
     32 H4          1.2189   -2.4889   -0.1636 H         1 <0>         0.0975
     33 H5         -0.3639   -2.7494   -0.9350 H         1 <0>         0.1258
     34 H6          0.7390   -2.1893   -3.1676 H         1 <0>         0.1186
     35 H7          2.9181   -1.4207   -3.1565 H         1 <0>         0.1202
     36 H8          2.9711   -1.5817   -1.3736 H         1 <0>         0.0901
     37 H9          4.6291   -3.2322   -2.7984 H         1 <0>         0.1725
     38 H10         2.5068   -3.7918   -4.3427 H         1 <0>         0.1254
     39 H11         3.0327   -5.2778   -3.4610 H         1 <0>         0.1041
     40 H12         0.5231   -4.6823   -2.7530 H         1 <0>         0.1531
     41 H13         1.5320   -4.1131   -0.2474 H         1 <0>         0.1335
     42 H14         2.0480   -5.6598   -0.9846 H         1 <0>         0.1373
     43 H15         4.6681   -2.6514   -0.1895 H         1 <0>         0.1446
     44 H16         2.9159   -2.3898   -0.0169 H         1 <0>         0.1466
     45 H17         3.8182   -3.1962    2.1112 H         1 <0>         0.1083
     46 H18         2.7943   -4.4640    1.3954 H         1 <0>         0.0848
     47 H19         3.2735   -4.7522    3.4097 H         1 <0>         0.1265
     48 H20         3.5669   -6.1302    5.4280 H         1 <0>         0.1297
     49 H21         7.0314   -7.9267    3.7069 H         1 <0>         0.1347
     50 H22         6.7384   -6.5604    1.6805 H         1 <0>         0.1327
     51 H23         6.5536   -8.1649    6.0732 H         1 <0>         0.0865
     52 H24         5.1080   -7.4150    6.7916 H         1 <0>         0.0856
     53 H25         2.9315   -8.4783    6.6002 H         1 <0>         0.1197
     54 H26         1.7021  -10.5953    6.3362 H         1 <0>         0.1230
     55 H27         2.8221  -12.5550    5.3523 H         1 <0>         0.1231
     56 H28         5.1713  -12.3975    4.6315 H         1 <0>         0.1236
     57 H29         6.3983  -10.2780    4.8878 H         1 <0>         0.1208
     58 H30         4.1006   -4.8553   -1.0877 H         1 <0>         0.4324
@<TRIPOS>BOND
     1    1    2 1
     2    1   29 1
     3    1   30 1
     4    1   31 1
     5    2    3 1
     6    3    4 2
     7    3    5 1
     8    5    6 1
     9    5   32 1
    10    5   33 1
    11    6   10 1
    12    6    7 1
    13    6   34 1
    14    7    8 1
    15    7   35 1
    16    7   36 1
    17    8   12 1
    18    8    9 1
    19    8   37 1
    20    9   10 1
    21    9   38 1
    22    9   39 1
    23   10   11 1
    24   10   40 1
    25   11   12 1
    26   11   41 1
    27   11   42 1
    28   12   13 1
    29   12   58 1
    30   13   14 1
    31   13   43 1
    32   13   44 1
    33   14   15 1
    34   14   45 1
    35   14   46 1
    36   15   16 1
    37   16   21 ar
    38   16   17 ar
    39   17   18 ar
    40   17   47 1
    41   18   19 ar
    42   18   48 1
    43   19   20 ar
    44   19   22 1
    45   20   21 ar
    46   20   49 1
    47   21   50 1
    48   22   23 1
    49   22   51 1
    50   22   52 1
    51   23   28 ar
    52   23   24 ar
    53   24   25 ar
    54   24   53 1
    55   25   26 ar
    56   25   54 1
    57   26   27 ar
    58   26   55 1
    59   27   28 ar
    60   27   56 1
    61   28   57 1
@<TRIPOS>MOLECULE
CHEMBL116174__3
   58    61     0     0     0
SMALL
USER_CHARGES

@<TRIPOS>ATOM
      1 C1         -0.0173    1.4248    0.0099 C.3       1 <0>         0.0321
      2 O1          0.0021   -0.0041    0.0020 O.3       1 <0>        -0.3508
      3 C2          0.5984   -0.5997   -1.0427 C.2       1 <0>         0.4562
      4 O2          1.0877    0.0699   -1.9214 O.2       1 <0>        -0.5052
      5 C3          0.6575   -2.1036   -1.1196 C.3       1 <0>        -0.1112
      6 C4          1.3848   -2.5205   -2.3995 C.3       1 <0>        -0.0932
      7 C5          2.8912   -2.1848   -2.3002 C.3       1 <0>        -0.1382
      8 C6          3.6062   -3.5671   -2.3956 C.3       1 <0>         0.0232
      9 C7          2.5662   -4.4860   -1.6635 C.3       1 <0>        -0.1436
     10 C8          1.3495   -4.0717   -2.5674 C.3       1 <0>        -0.0981
     11 C9          1.9793   -4.3131   -3.9744 C.3       1 <0>        -0.0106
     12 N1          3.4178   -3.9931   -3.8168 N.4       1 <0>        -0.3958
     13 C10         4.2318   -5.1832   -4.0975 C.3       1 <0>         0.0005
     14 C11         4.1272   -5.5338   -5.5831 C.3       1 <0>         0.0278
     15 O3          4.7082   -4.4860   -6.3619 O.3       1 <0>        -0.3282
     16 C12         4.6971   -4.6419   -7.7119 C.ar      1 <0>         0.1083
     17 C13         4.1334   -5.7772   -8.2757 C.ar      1 <0>        -0.1988
     18 C14         4.1229   -5.9330   -9.6483 C.ar      1 <0>        -0.0731
     19 C15         4.6742   -4.9589  -10.4600 C.ar      1 <0>        -0.0922
     20 C16         5.2370   -3.8267   -9.9006 C.ar      1 <0>        -0.0722
     21 C17         5.2445   -3.6632   -8.5288 C.ar      1 <0>        -0.1380
     22 C18         4.6619   -5.1317  -11.9570 C.3       1 <0>        -0.0443
     23 C19         3.3998   -4.5321  -12.5216 C.ar      1 <0>        -0.0816
     24 C20         2.2629   -5.3080  -12.6492 C.ar      1 <0>        -0.1160
     25 C21         1.1052   -4.7580  -13.1670 C.ar      1 <0>        -0.1173
     26 C22         1.0843   -3.4320  -13.5568 C.ar      1 <0>        -0.1208
     27 C23         2.2209   -2.6558  -13.4284 C.ar      1 <0>        -0.1165
     28 C24         3.3774   -3.2046  -12.9066 C.ar      1 <0>        -0.1151
     29 H1          1.0053    1.8021    0.0021 H         1 <0>         0.0638
     30 H2         -0.5445    1.7859   -0.8732 H         1 <0>         0.0646
     31 H3         -0.5275    1.7763    0.9067 H         1 <0>         0.1085
     32 H4          1.1948   -2.4908   -0.2539 H         1 <0>         0.1135
     33 H5         -0.3550   -2.5070   -1.1292 H         1 <0>         0.1189
     34 H6          0.9394   -2.0326   -3.2666 H         1 <0>         0.1056
     35 H7          3.1933   -1.5423   -3.1273 H         1 <0>         0.0971
     36 H8          3.1124   -1.7071   -1.3457 H         1 <0>         0.1104
     37 H9          4.6307   -3.5969   -2.0247 H         1 <0>         0.1708
     38 H10         2.8106   -5.5437   -1.7616 H         1 <0>         0.1010
     39 H11         2.4227   -4.1970   -0.6223 H         1 <0>         0.1228
     40 H12         0.3968   -4.5591   -2.3601 H         1 <0>         0.1520
     41 H13         1.8541   -5.3545   -4.2711 H         1 <0>         0.1330
     42 H14         1.5234   -3.6518   -4.7112 H         1 <0>         0.1348
     43 H15         5.2724   -4.9796   -3.8447 H         1 <0>         0.1405
     44 H16         3.8699   -6.0201   -3.5003 H         1 <0>         0.1475
     45 H17         4.6582   -6.4662   -5.7747 H         1 <0>         0.1073
     46 H18         3.0783   -5.6504   -5.8559 H         1 <0>         0.0842
     47 H19         3.7033   -6.5387   -7.6420 H         1 <0>         0.1265
     48 H20         3.6842   -6.8167  -10.0876 H         1 <0>         0.1295
     49 H21         5.6673   -3.0673  -10.5367 H         1 <0>         0.1346
     50 H22         5.6803   -2.7766   -8.0925 H         1 <0>         0.1326
     51 H23         5.5275   -4.6286  -12.3880 H         1 <0>         0.0865
     52 H24         4.7002   -6.1934  -12.2005 H         1 <0>         0.0855
     53 H25         2.2793   -6.3441  -12.3446 H         1 <0>         0.1197
     54 H26         0.2172   -5.3645  -13.2674 H         1 <0>         0.1229
     55 H27         0.1800   -3.0024  -13.9621 H         1 <0>         0.1231
     56 H28         2.2047   -1.6198  -13.7332 H         1 <0>         0.1235
     57 H29         4.2643   -2.5972  -12.8027 H         1 <0>         0.1209
     58 H30         3.6750   -3.2421   -4.4396 H         1 <0>         0.4314
@<TRIPOS>BOND
     1    1    2 1
     2    1   29 1
     3    1   30 1
     4    1   31 1
     5    2    3 1
     6    3    4 2
     7    3    5 1
     8    5    6 1
     9    5   32 1
    10    5   33 1
    11    6   10 1
    12    6    7 1
    13    6   34 1
    14    7    8 1
    15    7   35 1
    16    7   36 1
    17    8   12 1
    18    8    9 1
    19    8   37 1
    20    9   10 1
    21    9   38 1
    22    9   39 1
    23   10   11 1
    24   10   40 1
    25   11   12 1
    26   11   41 1
    27   11   42 1
    28   12   13 1
    29   12   58 1
    30   13   14 1
    31   13   43 1
    32   13   44 1
    33   14   15 1
    34   14   45 1
    35   14   46 1
    36   15   16 1
    37   16   21 ar
    38   16   17 ar
    39   17   18 ar
    40   17   47 1
    41   18   19 ar
    42   18   48 1
    43   19   20 ar
    44   19   22 1
    45   20   21 ar
    46   20   49 1
    47   21   50 1
    48   22   23 1
    49   22   51 1
    50   22   52 1
    51   23   28 ar
    52   23   24 ar
    53   24   25 ar
    54   24   53 1
    55   25   26 ar
    56   25   54 1
    57   26   27 ar
    58   26   55 1
    59   27   28 ar
    60   27   56 1
    61   28   57 1
@<TRIPOS>MOLECULE
CHEMBL480724
   65    67     0     0     0
SMALL
USER_CHARGES

@<TRIPOS>ATOM
      1 C1          1.9416    1.1925    0.5808 C.3       1 <0>         0.0136
      2 N1          1.2680   -0.0902    0.3379 N.3       1 <0>        -0.5345
      3 C2          1.4688   -1.0119    1.4640 C.3       1 <0>         0.0578
      4 C3          0.7653   -0.4607    2.7059 C.3       1 <0>        -0.1489
      5 C4          0.9745   -1.4206    3.8788 C.3       1 <0>        -0.0078
      6 N2          0.2990   -0.8915    5.0711 N.4       1 <0>        -0.3712
      7 C5          0.9394    0.3661    5.4791 C.3       1 <0>        -0.0637
      8 C6          0.3977   -1.8683    6.1638 C.3       1 <0>        -0.0286
      9 C7         -0.3986   -1.3808    7.3468 C.2       1 <0>         0.5006
     10 O1         -0.9902   -0.3237    7.2856 O.2       1 <0>        -0.5091
     11 N3         -0.4535   -2.1196    8.4727 N.am      1 <0>        -0.6394
     12 C8         -1.0492   -1.5943    9.6268 C.ar      1 <0>         0.0868
     13 C9         -0.6521   -2.0434   10.8793 C.ar      1 <0>        -0.0948
     14 C10        -1.2391   -1.5250   12.0164 C.ar      1 <0>        -0.1728
     15 C11        -2.2260   -0.5557   11.9077 C.ar      1 <0>         0.1232
     16 C12        -2.6235   -0.1069   10.6565 C.ar      1 <0>        -0.1253
     17 C13        -2.0328   -0.6202    9.5189 C.ar      1 <0>        -0.0880
     18 O2         -2.8040   -0.0460   13.0277 O.3       1 <0>        -0.2504
     19 C14        -2.2625   -0.3732   14.2307 C.ar      1 <0>         0.0658
     20 C15        -1.0967    0.2453   14.6586 C.ar      1 <0>        -0.1011
     21 C16        -0.5475   -0.0883   15.8815 C.ar      1 <0>        -0.1389
     22 C17        -1.1597   -1.0397   16.6798 C.ar      1 <0>         0.1072
     23 C18        -2.3232   -1.6577   16.2540 C.ar      1 <0>        -0.1382
     24 C19        -2.8782   -1.3218   15.0344 C.ar      1 <0>        -0.0903
     25 F1         -0.6209   -1.3655   17.8751 F         1 <0>        -0.1310
     26 C20         1.7216   -0.6926   -0.9228 C.3       1 <0>         0.1060
     27 C21         1.2806    0.1684   -2.0783 C.ar      1 <0>        -0.1069
     28 C22         0.0520   -0.0558   -2.6744 C.ar      1 <0>        -0.1150
     29 C23        -0.3580    0.7279   -3.7326 C.ar      1 <0>        -0.0872
     30 C24         0.4702    1.7506   -4.2022 C.ar      1 <0>        -0.1222
     31 C25         1.7091    1.9714   -3.5951 C.ar      1 <0>        -0.0866
     32 C26         2.1037    1.1831   -2.5344 C.ar      1 <0>        -0.1317
     33 C27         0.0388    2.5929   -5.3341 C.2       1 <0>         0.5151
     34 O3         -1.0459    2.3968   -5.8636 O.co2     1 <0>        -0.6838
     35 O4          0.7660    3.4872   -5.7428 O.co2     1 <0>        -0.6842
     36 H1          3.0108    1.0231    0.7074 H         1 <0>         0.0272
     37 H2          1.7768    1.8559   -0.2682 H         1 <0>         0.0873
     38 H3          1.5368    1.6502    1.4835 H         1 <0>         0.0619
     39 H4          1.0526   -1.9876    1.2136 H         1 <0>         0.0835
     40 H5          2.5353   -1.1126    1.6653 H         1 <0>         0.0414
     41 H6          1.1815    0.5151    2.9563 H         1 <0>         0.0899
     42 H7         -0.3012   -0.3600    2.5046 H         1 <0>         0.0989
     43 H8          0.5582   -2.3964    3.6284 H         1 <0>         0.1340
     44 H9          2.0410   -1.5214    4.0800 H         1 <0>         0.1313
     45 H10         1.9890    0.1817    5.7079 H         1 <0>         0.1192
     46 H11         0.8662    1.0909    4.6683 H         1 <0>         0.1299
     47 H12         0.4382    0.7587    6.3638 H         1 <0>         0.1396
     48 H13         0.0024   -2.8278    5.8302 H         1 <0>         0.1626
     49 H14         1.4421   -1.9861    6.4526 H         1 <0>         0.1622
     50 H15        -0.0805   -3.0149    8.4840 H         1 <0>         0.4203
     51 H16         0.1156   -2.7983   10.9640 H         1 <0>         0.1337
     52 H17        -0.9303   -1.8742   12.9906 H         1 <0>         0.1373
     53 H18        -3.3923    0.6470   10.5724 H         1 <0>         0.1426
     54 H19        -2.3391   -0.2675    8.5451 H         1 <0>         0.1623
     55 H20        -0.6186    0.9869   14.0359 H         1 <0>         0.1415
     56 H21         0.3601    0.3930   16.2149 H         1 <0>         0.1462
     57 H22        -2.7996   -2.3996   16.8777 H         1 <0>         0.1478
     58 H23        -3.7884   -1.8005   14.7047 H         1 <0>         0.1450
     59 H24         2.8091   -0.7669   -0.9193 H         1 <0>         0.0423
     60 H25         1.2898   -1.6881   -1.0259 H         1 <0>         0.0807
     61 H26        -0.5871   -0.8466   -2.3104 H         1 <0>         0.1119
     62 H27        -1.3168    0.5514   -4.1974 H         1 <0>         0.1271
     63 H28         2.3543    2.7601   -3.9529 H         1 <0>         0.1267
     64 H29         3.0591    1.3554   -2.0613 H         1 <0>         0.1083
     65 H30        -0.6726   -0.7208    4.8592 H         1 <0>         0.4336
@<TRIPOS>BOND
     1    1    2 1
     2    1   36 1
     3    1   37 1
     4    1   38 1
     5    2    3 1
     6    2   26 1
     7    3    4 1
     8    3   39 1
     9    3   40 1
    10    4    5 1
    11    4   41 1
    12    4   42 1
    13    5    6 1
    14    5   43 1
    15    5   44 1
    16    6    7 1
    17    6    8 1
    18    6   65 1
    19    7   45 1
    20    7   46 1
    21    7   47 1
    22    8    9 1
    23    8   48 1
    24    8   49 1
    25    9   10 2
    26    9   11 am
    27   11   12 1
    28   11   50 1
    29   12   17 ar
    30   12   13 ar
    31   13   14 ar
    32   13   51 1
    33   14   15 ar
    34   14   52 1
    35   15   16 ar
    36   15   18 1
    37   16   17 ar
    38   16   53 1
    39   17   54 1
    40   18   19 1
    41   19   24 ar
    42   19   20 ar
    43   20   21 ar
    44   20   55 1
    45   21   22 ar
    46   21   56 1
    47   22   23 ar
    48   22   25 1
    49   23   24 ar
    50   23   57 1
    51   24   58 1
    52   26   27 1
    53   26   59 1
    54   26   60 1
    55   27   32 ar
    56   27   28 ar
    57   28   29 ar
    58   28   61 1
    59   29   30 ar
    60   29   62 1
    61   30   31 ar
    62   30   33 1
    63   31   32 ar
    64   31   63 1
    65   32   64 1
    66   33   34 2
    67   33   35 1
@<TRIPOS>MOLECULE
CHEMBL480724__1
   65    67     0     0     0
SMALL
USER_CHARGES

@<TRIPOS>ATOM
      1 C1         -1.4746    1.3588    1.2777 C.3       1 <0>        -0.0557
      2 N1         -0.8747    0.0969    0.8243 N.4       1 <0>        -0.3837
      3 C2         -1.9388   -0.8471    0.4574 C.3       1 <0>        -0.0073
      4 C3         -2.7060   -0.3064   -0.7509 C.3       1 <0>        -0.1488
      5 C4         -3.8143   -1.2896   -1.1329 C.3       1 <0>         0.0591
      6 N2         -4.5509   -0.7705   -2.2930 N.3       1 <0>        -0.5232
      7 C5         -5.2777    0.4587   -1.9482 C.3       1 <0>         0.0106
      8 C6         -5.4626   -1.7866   -2.8355 C.3       1 <0>         0.0370
      9 C7         -6.0137   -1.3135   -4.1559 C.2       1 <0>         0.5136
     10 O1         -5.6798   -0.2358   -4.6013 O.2       1 <0>        -0.4983
     11 N3         -6.8776   -2.0878   -4.8419 N.am      1 <0>        -0.6687
     12 C8         -7.5195   -1.5826   -5.9800 C.ar      1 <0>         0.1112
     13 C9         -8.7557   -2.0869   -6.3616 C.ar      1 <0>        -0.1094
     14 C10        -9.3881   -1.5883   -7.4832 C.ar      1 <0>        -0.1717
     15 C11        -8.7884   -0.5837   -8.2291 C.ar      1 <0>         0.1062
     16 C12        -7.5530   -0.0797   -7.8485 C.ar      1 <0>        -0.1227
     17 C13        -6.9225   -0.5733   -6.7236 C.ar      1 <0>        -0.0960
     18 O2         -9.4114   -0.0934   -9.3335 O.3       1 <0>        -0.2546
     19 C14       -10.6937   -0.4791   -9.5669 C.ar      1 <0>         0.0729
     20 C15       -11.7318    0.0855   -8.8400 C.ar      1 <0>        -0.1025
     21 C16       -13.0345   -0.3075   -9.0783 C.ar      1 <0>        -0.1389
     22 C17       -13.3044   -1.2646  -10.0418 C.ar      1 <0>         0.1026
     23 C18       -12.2694   -1.8289  -10.7680 C.ar      1 <0>        -0.1386
     24 C19       -10.9662   -1.4335  -10.5363 C.ar      1 <0>        -0.0927
     25 F1        -14.5788   -1.6486  -10.2731 F         1 <0>        -0.1332
     26 C20        -0.0633   -0.4763    1.9064 C.3       1 <0>         0.0530
     27 C21         1.1002    0.4357    2.1990 C.ar      1 <0>        -0.1832
     28 C22         2.2940    0.2684    1.5194 C.ar      1 <0>        -0.1086
     29 C23         3.3632    1.0990    1.7823 C.ar      1 <0>        -0.0847
     30 C24         3.2387    2.1115    2.7369 C.ar      1 <0>        -0.0891
     31 C25         2.0301    2.2748    3.4187 C.ar      1 <0>        -0.0851
     32 C26         0.9678    1.4400    3.1418 C.ar      1 <0>        -0.1119
     33 C27         4.3781    3.0038    3.0240 C.2       1 <0>         0.5089
     34 O3          5.4347    2.8580    2.4258 O.co2     1 <0>        -0.6719
     35 O4          4.2659    3.8891    3.8602 O.co2     1 <0>        -0.6724
     36 H1         -0.6850    2.0593    1.5499 H         1 <0>         0.1299
     37 H2         -2.0766    1.7841    0.4748 H         1 <0>         0.1200
     38 H3         -2.1071    1.1695    2.1450 H         1 <0>         0.1192
     39 H4         -1.4980   -1.8117    0.2060 H         1 <0>         0.1297
     40 H5         -2.6227   -0.9681    1.2976 H         1 <0>         0.1267
     41 H6         -3.1468    0.6582   -0.4994 H         1 <0>         0.0894
     42 H7         -2.0221   -0.1854   -1.5910 H         1 <0>         0.0980
     43 H8         -3.3734   -2.2542   -1.3844 H         1 <0>         0.0866
     44 H9         -4.4981   -1.4106   -0.2928 H         1 <0>         0.0466
     45 H10        -4.5700    1.2179   -1.6152 H         1 <0>         0.0713
     46 H11        -5.8142    0.8216   -2.8248 H         1 <0>         0.0927
     47 H12        -5.9881    0.2485   -1.1486 H         1 <0>         0.0268
     48 H13        -4.9200   -2.7205   -2.9819 H         1 <0>         0.1108
     49 H14        -6.2831   -1.9488   -2.1365 H         1 <0>         0.0726
     50 H15        -7.0549   -2.9949   -4.5476 H         1 <0>         0.4117
     51 H16        -9.2222   -2.8693   -5.7815 H         1 <0>         0.1296
     52 H17       -10.3496   -1.9805   -7.7800 H         1 <0>         0.1320
     53 H18        -7.0864    0.7018   -8.4299 H         1 <0>         0.1381
     54 H19        -5.9629   -0.1778   -6.4249 H         1 <0>         0.1640
     55 H20       -11.5215    0.8315   -8.0880 H         1 <0>         0.1413
     56 H21       -13.8428    0.1318   -8.5126 H         1 <0>         0.1446
     57 H22       -12.4814   -2.5754  -11.5192 H         1 <0>         0.1461
     58 H23       -10.1595   -1.8703  -11.1062 H         1 <0>         0.1441
     59 H24        -0.6754   -0.5831    2.8020 H         1 <0>         0.1292
     60 H25         0.3093   -1.4544    1.6022 H         1 <0>         0.1307
     61 H26         2.3888   -0.5147    0.7818 H         1 <0>         0.1222
     62 H27         4.2946    0.9668    1.2517 H         1 <0>         0.1386
     63 H28         1.9268    3.0554    4.1579 H         1 <0>         0.1384
     64 H29         0.0316    1.5678    3.6648 H         1 <0>         0.1215
     65 H30        -0.2892    0.2722    0.0215 H         1 <0>         0.4253
@<TRIPOS>BOND
     1    1    2 1
     2    1   36 1
     3    1   37 1
     4    1   38 1
     5    2    3 1
     6    2   26 1
     7    2   65 1
     8    3    4 1
     9    3   39 1
    10    3   40 1
    11    4    5 1
    12    4   41 1
    13    4   42 1
    14    5    6 1
    15    5   43 1
    16    5   44 1
    17    6    7 1
    18    6    8 1
    19    7   45 1
    20    7   46 1
    21    7   47 1
    22    8    9 1
    23    8   48 1
    24    8   49 1
    25    9   10 2
    26    9   11 am
    27   11   12 1
    28   11   50 1
    29   12   17 ar
    30   12   13 ar
    31   13   14 ar
    32   13   51 1
    33   14   15 ar
    34   14   52 1
    35   15   16 ar
    36   15   18 1
    37   16   17 ar
    38   16   53 1
    39   17   54 1
    40   18   19 1
    41   19   24 ar
    42   19   20 ar
    43   20   21 ar
    44   20   55 1
    45   21   22 ar
    46   21   56 1
    47   22   23 ar
    48   22   25 1
    49   23   24 ar
    50   23   57 1
    51   24   58 1
    52   26   27 1
    53   26   59 1
    54   26   60 1
    55   27   32 ar
    56   27   28 ar
    57   28   29 ar
    58   28   61 1
    59   29   30 ar
    60   29   62 1
    61   30   31 ar
    62   30   33 1
    63   31   32 ar
    64   31   63 1
    65   32   64 1
    66   33   34 2
    67   33   35 1
@<TRIPOS>MOLECULE
CHEMBL117132
   49    52     0     0     0
SMALL
USER_CHARGES

@<TRIPOS>ATOM
      1 C1          4.0688    5.5056   -1.2224 C.ar      1 <0>        -0.0547
      2 C2          3.9951    4.1297   -1.2013 C.ar      1 <0>        -0.1410
      3 C3          3.6181    3.4702   -0.0381 C.ar      1 <0>         0.0988
      4 C4          3.3142    4.1943    1.1079 C.ar      1 <0>        -0.1182
      5 C5          3.3856    5.5704    1.0948 C.ar      1 <0>        -0.0704
      6 C6          3.7645    6.2370   -0.0724 C.ar      1 <0>        -0.0125
      7 C7          3.8428    7.7122   -0.0906 C.2       1 <0>         0.2206
      8 N1          4.1790    8.4493   -1.1234 N.2       1 <0>        -0.4666
      9 C8          4.1367    9.7407   -0.7605 C.2       1 <0>        -0.0387
     10 C9          3.7641    9.7941    0.5307 C.2       1 <0>        -0.0603
     11 O1          3.5760    8.5254    0.9462 O.3       1 <0>        -0.1958
     12 O2          3.5462    2.1141   -0.0214 O.3       1 <0>        -0.2504
     13 C10         4.7042    1.4120   -0.1413 C.ar      1 <0>         0.1043
     14 C11         4.6684    0.0305   -0.2628 C.ar      1 <0>        -0.1021
     15 C12         5.8449   -0.6827   -0.3851 C.ar      1 <0>        -0.1023
     16 C13         7.0622   -0.0177   -0.3864 C.ar      1 <0>         0.0789
     17 C14         7.0981    1.3636   -0.2644 C.ar      1 <0>        -0.1615
     18 C15         5.9215    2.0774   -0.1478 C.ar      1 <0>        -0.1543
     19 O3          8.2203   -0.7199   -0.5067 O.3       1 <0>        -0.3240
     20 C16         9.4371    0.0295   -0.5004 C.3       1 <0>         0.0278
     21 C17        10.6244   -0.9245   -0.6448 C.3       1 <0>         0.0013
     22 N2         10.5742   -1.5730   -1.9619 N.4       1 <0>        -0.3912
     23 C18         9.3845   -2.4471   -2.0411 C.3       1 <0>        -0.0015
     24 C19         9.8449   -3.6671   -2.8775 C.3       1 <0>        -0.1458
     25 C20        11.3047   -3.8513   -2.3855 C.3       1 <0>        -0.1421
     26 C21        11.7789   -2.4013   -2.1535 C.3       1 <0>        -0.0134
     27 H1          4.3659    6.0174   -2.1258 H         1 <0>         0.1480
     28 H2          4.2303    3.5633   -2.0903 H         1 <0>         0.1397
     29 H3          3.0212    3.6781    2.0102 H         1 <0>         0.1444
     30 H4          3.1485    6.1327    1.9858 H         1 <0>         0.1439
     31 H5          4.3622   10.5867   -1.3929 H         1 <0>         0.1909
     32 H6          3.6356   10.6877    1.1235 H         1 <0>         0.2226
     33 H7          3.7207   -0.4874   -0.2615 H         1 <0>         0.1475
     34 H8          5.8171   -1.7582   -0.4794 H         1 <0>         0.1421
     35 H9          8.0460    1.8812   -0.2646 H         1 <0>         0.1312
     36 H10         5.9493    3.1533   -0.0573 H         1 <0>         0.1379
     37 H11         9.4340    0.7342   -1.3320 H         1 <0>         0.0850
     38 H12         9.5222    0.5761    0.4387 H         1 <0>         0.1081
     39 H13        11.5545   -0.3639   -0.5510 H         1 <0>         0.1486
     40 H14        10.5775   -1.6837    0.1360 H         1 <0>         0.1405
     41 H15         9.0794   -2.7641   -1.0439 H         1 <0>         0.1378
     42 H16         8.5665   -1.9301   -2.5427 H         1 <0>         0.1345
     43 H17         9.2422   -4.5463   -2.6498 H         1 <0>         0.1163
     44 H18         9.8176   -3.4422   -3.9437 H         1 <0>         0.0968
     45 H19        11.3291   -4.4184   -1.4550 H         1 <0>         0.0985
     46 H20        11.9106   -4.3372   -3.1503 H         1 <0>         0.1122
     47 H21        12.3363   -2.0499   -3.0218 H         1 <0>         0.1323
     48 H22        12.4065   -2.3543   -1.2635 H         1 <0>         0.1316
     49 H23        10.5262   -0.8711   -2.6852 H         1 <0>         0.4245
@<TRIPOS>BOND
     1    1    6 ar
     2    1    2 ar
     3    1   27 1
     4    2    3 ar
     5    2   28 1
     6    3    4 ar
     7    3   12 1
     8    4    5 ar
     9    4   29 1
    10    5    6 ar
    11    5   30 1
    12    6    7 1
    13    7   11 1
    14    7    8 2
    15    8    9 1
    16    9   10 2
    17    9   31 1
    18   10   11 1
    19   10   32 1
    20   12   13 1
    21   13   18 ar
    22   13   14 ar
    23   14   15 ar
    24   14   33 1
    25   15   16 ar
    26   15   34 1
    27   16   17 ar
    28   16   19 1
    29   17   18 ar
    30   17   35 1
    31   18   36 1
    32   19   20 1
    33   20   21 1
    34   20   37 1
    35   20   38 1
    36   21   22 1
    37   21   39 1
    38   21   40 1
    39   22   26 1
    40   22   23 1
    41   22   49 1
    42   23   24 1
    43   23   41 1
    44   23   42 1
    45   24   25 1
    46   24   43 1
    47   24   44 1
    48   25   26 1
    49   25   45 1
    50   25   46 1
    51   26   47 1
    52   26   48 1
@<TRIPOS>MOLECULE
CHEMBL519600
   67    69     0     0     0
SMALL
USER_CHARGES

@<TRIPOS>ATOM
      1 C1         -0.0158    1.4559    0.0072 C.3       1 <0>         0.0136
      2 N1         -0.0063   -0.0131    0.0008 N.3       1 <0>        -0.5345
      3 C2          0.6965   -0.5401    1.1781 C.3       1 <0>         0.0579
      4 C3         -0.0900   -0.1868    2.4421 C.3       1 <0>        -0.1488
      5 C4          0.6420   -0.7357    3.6684 C.3       1 <0>        -0.0078
      6 N2         -0.1131   -0.3965    4.8819 N.4       1 <0>        -0.3711
      7 C5         -0.1271    1.0618    5.0582 C.3       1 <0>        -0.0636
      8 C6          0.5244   -1.0245    6.0469 C.3       1 <0>        -0.0285
      9 C7         -0.3169   -0.7792    7.2729 C.2       1 <0>         0.5001
     10 O1         -1.3462   -0.1438    7.1849 O.2       1 <0>        -0.5084
     11 N3          0.0745   -1.2659    8.4672 N.am      1 <0>        -0.6449
     12 C8         -0.6540   -0.9573    9.6213 C.ar      1 <0>         0.1126
     13 C9          0.0032   -0.7745   10.8309 C.ar      1 <0>        -0.1272
     14 C10        -0.7188   -0.4700   11.9682 C.ar      1 <0>        -0.0951
     15 C11        -2.0946   -0.3472   11.9034 C.ar      1 <0>        -0.0688
     16 C12        -2.7520   -0.5291   10.7005 C.ar      1 <0>        -0.0964
     17 C13        -2.0352   -0.8276    9.5583 C.ar      1 <0>        -0.1087
     18 C14        -2.8792   -0.0148   13.1463 C.3       1 <0>        -0.0464
     19 C15        -3.0037    1.4813   13.2768 C.ar      1 <0>        -0.0814
     20 C16        -2.0423    2.1975   13.9650 C.ar      1 <0>        -0.1151
     21 C17        -2.1565    3.5699   14.0847 C.ar      1 <0>        -0.1176
     22 C18        -3.2319    4.2262   13.5157 C.ar      1 <0>        -0.1209
     23 C19        -4.1928    3.5102   12.8267 C.ar      1 <0>        -0.1168
     24 C20        -4.0764    2.1383   12.7034 C.ar      1 <0>        -0.1144
     25 C21         0.5850   -0.5302   -1.2405 C.3       1 <0>         0.1059
     26 C22        -0.3007   -0.1723   -2.4061 C.ar      1 <0>        -0.1068
     27 C23        -1.3112   -1.0349   -2.7933 C.ar      1 <0>        -0.1150
     28 C24        -2.1254   -0.7141   -3.8593 C.ar      1 <0>        -0.0872
     29 C25        -1.9282    0.4852   -4.5484 C.ar      1 <0>        -0.1224
     30 C26        -0.9063    1.3514   -4.1515 C.ar      1 <0>        -0.0866
     31 C27        -0.1032    1.0199   -3.0803 C.ar      1 <0>        -0.1317
     32 C28        -2.7948    0.8352   -5.6901 C.2       1 <0>         0.5152
     33 O2         -3.6881    0.0747   -6.0353 O.co2     1 <0>        -0.6839
     34 O3         -2.6197    1.8857   -6.2912 O.co2     1 <0>        -0.6842
     35 H1          1.0094    1.8259   -0.0030 H         1 <0>         0.0272
     36 H2         -0.5422    1.8197   -0.8752 H         1 <0>         0.0873
     37 H3         -0.5217    1.8120    0.9046 H         1 <0>         0.0618
     38 H4          0.7829   -1.6235    1.0949 H         1 <0>         0.0835
     39 H5          1.6919   -0.0996    1.2345 H         1 <0>         0.0415
     40 H6         -0.1763    0.8966    2.5253 H         1 <0>         0.0898
     41 H7         -1.0854   -0.6273    2.3857 H         1 <0>         0.0987
     42 H8          0.7284   -1.8191    3.5851 H         1 <0>         0.1340
     43 H9          1.6374   -0.2952    3.7248 H         1 <0>         0.1313
     44 H10        -0.6001    1.5278    4.1938 H         1 <0>         0.1298
     45 H11        -0.6874    1.3136    5.9587 H         1 <0>         0.1393
     46 H12         0.8958    1.4262    5.1530 H         1 <0>         0.1193
     47 H13         0.6151   -2.0973    5.8771 H         1 <0>         0.1626
     48 H14         1.5153   -0.5950    6.1943 H         1 <0>         0.1617
     49 H15         0.8613   -1.8302    8.5267 H         1 <0>         0.4193
     50 H16         1.0777   -0.8706   10.8823 H         1 <0>         0.1291
     51 H17        -0.2083   -0.3280   12.9093 H         1 <0>         0.1314
     52 H18        -3.8267   -0.4328   10.6532 H         1 <0>         0.1300
     53 H19        -2.5487   -0.9645    8.6181 H         1 <0>         0.1382
     54 H20        -3.8730   -0.4575   13.0779 H         1 <0>         0.0865
     55 H21        -2.3630   -0.4140   14.0194 H         1 <0>         0.0865
     56 H22        -1.2022    1.6847   14.4095 H         1 <0>         0.1205
     57 H23        -1.4057    4.1294   14.6230 H         1 <0>         0.1229
     58 H24        -3.3214    5.2984   13.6098 H         1 <0>         0.1227
     59 H25        -5.0331    4.0229   12.3824 H         1 <0>         0.1232
     60 H26        -4.8252    1.5793   12.1619 H         1 <0>         0.1207
     61 H27         1.5712   -0.0888   -1.3846 H         1 <0>         0.0423
     62 H28         0.6783   -1.6142   -1.1745 H         1 <0>         0.0807
     63 H29        -1.4624   -1.9616   -2.2597 H         1 <0>         0.1119
     64 H30        -2.9131   -1.3885   -4.1609 H         1 <0>         0.1270
     65 H31        -0.7483    2.2801   -4.6796 H         1 <0>         0.1267
     66 H32         0.6843    1.6905   -2.7696 H         1 <0>         0.1083
     67 H33        -1.0600   -0.7338    4.7941 H         1 <0>         0.4333
@<TRIPOS>BOND
     1    1    2 1
     2    1   35 1
     3    1   36 1
     4    1   37 1
     5    2    3 1
     6    2   25 1
     7    3    4 1
     8    3   38 1
     9    3   39 1
    10    4    5 1
    11    4   40 1
    12    4   41 1
    13    5    6 1
    14    5   42 1
    15    5   43 1
    16    6    7 1
    17    6    8 1
    18    6   67 1
    19    7   44 1
    20    7   45 1
    21    7   46 1
    22    8    9 1
    23    8   47 1
    24    8   48 1
    25    9   10 2
    26    9   11 am
    27   11   12 1
    28   11   49 1
    29   12   17 ar
    30   12   13 ar
    31   13   14 ar
    32   13   50 1
    33   14   15 ar
    34   14   51 1
    35   15   16 ar
    36   15   18 1
    37   16   17 ar
    38   16   52 1
    39   17   53 1
    40   18   19 1
    41   18   54 1
    42   18   55 1
    43   19   24 ar
    44   19   20 ar
    45   20   21 ar
    46   20   56 1
    47   21   22 ar
    48   21   57 1
    49   22   23 ar
    50   22   58 1
    51   23   24 ar
    52   23   59 1
    53   24   60 1
    54   25   26 1
    55   25   61 1
    56   25   62 1
    57   26   31 ar
    58   26   27 ar
    59   27   28 ar
    60   27   63 1
    61   28   29 ar
    62   28   64 1
    63   29   30 ar
    64   29   32 1
    65   30   31 ar
    66   30   65 1
    67   31   66 1
    68   32   33 2
    69   32   34 1
@<TRIPOS>MOLECULE
CHEMBL519600__1
   67    69     0     0     0
SMALL
USER_CHARGES

@<TRIPOS>ATOM
      1 C1         -0.0193    1.4587    0.0113 C.3       1 <0>        -0.0557
      2 N1          0.0066   -0.0100    0.0118 N.4       1 <0>        -0.3837
      3 C2          0.6935   -0.4881   -1.1955 C.3       1 <0>        -0.0072
      4 C3          2.1610   -0.0575   -1.1516 C.3       1 <0>        -0.1488
      5 C4          2.8764   -0.5554   -2.4091 C.3       1 <0>         0.0591
      6 N2          4.2854   -0.1419   -2.3669 N.3       1 <0>        -0.5231
      7 C5          4.4079    1.3196   -2.4507 C.3       1 <0>         0.0109
      8 C6          5.0583   -0.7969   -3.4307 C.3       1 <0>         0.0372
      9 C7          6.5280   -0.5471   -3.2104 C.2       1 <0>         0.5123
     10 O1          6.8955    0.1117   -2.2607 O.2       1 <0>        -0.4985
     11 N3          7.4341   -1.0557   -4.0688 N.am      1 <0>        -0.6742
     12 C8          8.7902   -0.7442   -3.9204 C.ar      1 <0>         0.1355
     13 C9          9.5953   -0.5895   -5.0413 C.ar      1 <0>        -0.1402
     14 C10        10.9334   -0.2821   -4.8915 C.ar      1 <0>        -0.0954
     15 C11        11.4716   -0.1284   -3.6270 C.ar      1 <0>        -0.0852
     16 C12        10.6727   -0.2823   -2.5089 C.ar      1 <0>        -0.0958
     17 C13         9.3325   -0.5836   -2.6521 C.ar      1 <0>        -0.1149
     18 C14        12.9321    0.2070   -3.4673 C.3       1 <0>        -0.0426
     19 C15        13.1046    1.7040   -3.4486 C.ar      1 <0>        -0.0775
     20 C16        13.3083    2.3911   -4.6306 C.ar      1 <0>        -0.1153
     21 C17        13.4666    3.7642   -4.6135 C.ar      1 <0>        -0.1184
     22 C18        13.4206    4.4504   -3.4143 C.ar      1 <0>        -0.1235
     23 C19        13.2160    3.7634   -2.2323 C.ar      1 <0>        -0.1175
     24 C20        13.0535    2.3907   -2.2499 C.ar      1 <0>        -0.1143
     25 C21        -1.3695   -0.5240    0.0281 C.3       1 <0>         0.0530
     26 C22        -2.0351   -0.1365    1.3235 C.ar      1 <0>        -0.1831
     27 C23        -1.9479   -0.9757    2.4204 C.ar      1 <0>        -0.1087
     28 C24        -2.5548   -0.6278    3.6090 C.ar      1 <0>        -0.0846
     29 C25        -3.2586    0.5754    3.7040 C.ar      1 <0>        -0.0892
     30 C26        -3.3420    1.4179    2.5926 C.ar      1 <0>        -0.0851
     31 C27        -2.7257    1.0594    1.4120 C.ar      1 <0>        -0.1119
     32 C28        -3.9110    0.9543    4.9719 C.2       1 <0>         0.5089
     33 O2         -3.8365    0.2145    5.9429 O.co2     1 <0>        -0.6720
     34 O3         -4.5263    2.0081    5.0520 O.co2     1 <0>        -0.6723
     35 H1          1.0018    1.8401   -0.0009 H         1 <0>         0.1200
     36 H2         -0.5498    1.8125   -0.8728 H         1 <0>         0.1193
     37 H3         -0.5289    1.8135    0.9071 H         1 <0>         0.1299
     38 H4          0.6352   -1.5756   -1.2402 H         1 <0>         0.1298
     39 H5          0.2161   -0.0621   -2.0780 H         1 <0>         0.1268
     40 H6          2.2193    1.0301   -1.1070 H         1 <0>         0.0893
     41 H7          2.6384   -0.4835   -0.2692 H         1 <0>         0.0978
     42 H8          2.8181   -1.6429   -2.4537 H         1 <0>         0.0865
     43 H9          2.3990   -0.1294   -3.2915 H         1 <0>         0.0465
     44 H10         3.8842    1.7768   -1.6112 H         1 <0>         0.0710
     45 H11         5.4611    1.5984   -2.4174 H         1 <0>         0.0924
     46 H12         3.9693    1.6679   -3.3858 H         1 <0>         0.0267
     47 H13         4.8653   -1.8695   -3.4123 H         1 <0>         0.1105
     48 H14         4.7617   -0.3909   -4.3979 H         1 <0>         0.0717
     49 H15         7.1462   -1.6377   -4.7894 H         1 <0>         0.4106
     50 H16         9.1755   -0.7098   -6.0291 H         1 <0>         0.1249
     51 H17        11.5601   -0.1620   -5.7628 H         1 <0>         0.1259
     52 H18        11.0962   -0.1619   -1.5227 H         1 <0>         0.1251
     53 H19         8.7079   -0.6986   -1.7786 H         1 <0>         0.1389
     54 H20        13.3011   -0.2130   -2.5315 H         1 <0>         0.0835
     55 H21        13.4947   -0.2132   -4.3009 H         1 <0>         0.0834
     56 H22        13.3442    1.8550   -5.5675 H         1 <0>         0.1201
     57 H23        13.6264    4.3010   -5.5369 H         1 <0>         0.1216
     58 H24        13.5450    5.5231   -3.4008 H         1 <0>         0.1212
     59 H25        13.1805    4.2994   -1.2954 H         1 <0>         0.1220
     60 H26        12.8899    1.8544   -1.3269 H         1 <0>         0.1206
     61 H27        -1.9259   -0.0993   -0.8075 H         1 <0>         0.1292
     62 H28        -1.3527   -1.6102   -0.0610 H         1 <0>         0.1307
     63 H29        -1.4035   -1.9054    2.3454 H         1 <0>         0.1221
     64 H30        -2.4866   -1.2840    4.4640 H         1 <0>         0.1386
     65 H31        -3.8844    2.3495    2.6589 H         1 <0>         0.1384
     66 H32        -2.7856    1.7117    0.5533 H         1 <0>         0.1216
     67 H33         0.4977   -0.3375    0.8301 H         1 <0>         0.4253
@<TRIPOS>BOND
     1    1    2 1
     2    1   35 1
     3    1   36 1
     4    1   37 1
     5    2    3 1
     6    2   25 1
     7    2   67 1
     8    3    4 1
     9    3   38 1
    10    3   39 1
    11    4    5 1
    12    4   40 1
    13    4   41 1
    14    5    6 1
    15    5   42 1
    16    5   43 1
    17    6    7 1
    18    6    8 1
    19    7   44 1
    20    7   45 1
    21    7   46 1
    22    8    9 1
    23    8   47 1
    24    8   48 1
    25    9   10 2
    26    9   11 am
    27   11   12 1
    28   11   49 1
    29   12   17 ar
    30   12   13 ar
    31   13   14 ar
    32   13   50 1
    33   14   15 ar
    34   14   51 1
    35   15   16 ar
    36   15   18 1
    37   16   17 ar
    38   16   52 1
    39   17   53 1
    40   18   19 1
    41   18   54 1
    42   18   55 1
    43   19   24 ar
    44   19   20 ar
    45   20   21 ar
    46   20   56 1
    47   21   22 ar
    48   21   57 1
    49   22   23 ar
    50   22   58 1
    51   23   24 ar
    52   23   59 1
    53   24   60 1
    54   25   26 1
    55   25   61 1
    56   25   62 1
    57   26   31 ar
    58   26   27 ar
    59   27   28 ar
    60   27   63 1
    61   28   29 ar
    62   28   64 1
    63   29   30 ar
    64   29   32 1
    65   30   31 ar
    66   30   65 1
    67   31   66 1
    68   32   33 2
    69   32   34 1
@<TRIPOS>MOLECULE
CHEMBL86211
   41    41     0     0     0
SMALL
USER_CHARGES

@<TRIPOS>ATOM
      1 C1         -0.5204    1.6595    0.5031 C.3       1 <0>        -0.1343
      2 C2         -0.4574    0.1403    0.3330 C.3       1 <0>         0.0663
      3 H1         -1.4585   -0.2786    0.4352 H         1 <0>         0.0938
      4 C3          0.0883   -0.1902   -1.0323 C.2       1 <0>         0.4929
      5 O1          1.1996   -0.6793   -1.1426 O.co2     1 <0>        -0.6885
      6 O2         -0.5815    0.0317   -2.0266 O.co2     1 <0>        -0.6941
      7 N1          0.4178   -0.4302    1.3599 N.am      1 <0>        -0.5802
      8 C4          1.8234   -0.0237    1.4328 C.3       1 <0>         0.0786
      9 C5         -0.0701   -1.3291    2.2377 C.2       1 <0>         0.5204
     10 O3         -1.2337   -1.6656    2.1775 O.2       1 <0>        -0.5355
     11 C6          0.8303   -1.9160    3.2941 C.3       1 <0>        -0.0813
     12 H2          1.6592   -2.4380    2.8160 H         1 <0>         0.1065
     13 C7          0.0345   -2.9011    4.1527 C.3       1 <0>        -0.0719
     14 C8          0.9637   -3.5906    5.1182 C.ar      1 <0>        -0.0723
     15 C9          1.6852   -4.6975    4.7120 C.ar      1 <0>        -0.1154
     16 C10         2.5376   -5.3300    5.5976 C.ar      1 <0>        -0.1168
     17 C11         2.6689   -4.8552    6.8892 C.ar      1 <0>        -0.1296
     18 C12         1.9481   -3.7477    7.2951 C.ar      1 <0>        -0.1199
     19 C13         1.0989   -3.1126    6.4082 C.ar      1 <0>        -0.1203
     20 C14         1.3768   -0.7940    4.1792 C.3       1 <0>        -0.1359
     21 C15         0.2299    0.0029    4.7456 C.2       1 <0>         0.5147
     22 O4         -0.9065   -0.2384    4.3974 O.2       1 <0>        -0.4828
     23 N2          0.4670    0.9837    5.6390 N.am      1 <0>        -0.6025
     24 O5         -0.6106    1.7325    6.1711 O.3       1 <0>        -0.3191
     25 H3          0.4808    2.0783    0.4008 H         1 <0>         0.0471
     26 H4         -1.1716    2.0840   -0.2610 H         1 <0>         0.0656
     27 H5         -0.9151    1.8985    1.4906 H         1 <0>         0.0425
     28 H6          1.9182    0.8399    2.0909 H         1 <0>         0.0316
     29 H7          2.4199   -0.8471    1.8256 H         1 <0>         0.0585
     30 H8          2.1779    0.2384    0.4359 H         1 <0>         0.1010
     31 H9         -0.7321   -2.3615    4.7088 H         1 <0>         0.0932
     32 H10        -0.4380   -3.6438    3.5099 H         1 <0>         0.0853
     33 H11         1.5827   -5.0685    3.7029 H         1 <0>         0.1243
     34 H12         3.1008   -6.1953    5.2806 H         1 <0>         0.1203
     35 H13         3.3343   -5.3497    7.5814 H         1 <0>         0.1178
     36 H14         2.0503   -3.3769    8.3043 H         1 <0>         0.1181
     37 H15         0.5386   -2.2451    6.7242 H         1 <0>         0.1170
     38 H16         1.9576   -1.2248    4.9948 H         1 <0>         0.1049
     39 H17         2.0148   -0.1402    3.5846 H         1 <0>         0.1146
     40 H18         1.3759    1.1767    5.9175 H         1 <0>         0.4038
     41 H19        -0.3423    2.4131    6.8034 H         1 <0>         0.3817
@<TRIPOS>BOND
     1    1    2 1
     2    1   25 1
     3    1   26 1
     4    1   27 1
     5    2    3 1
     6    2    4 1
     7    2    7 1
     8    4    5 2
     9    4    6 1
    10    7    8 1
    11    7    9 am
    12    8   28 1
    13    8   29 1
    14    8   30 1
    15    9   10 2
    16    9   11 1
    17   11   12 1
    18   11   13 1
    19   11   20 1
    20   13   14 1
    21   13   31 1
    22   13   32 1
    23   14   19 ar
    24   14   15 ar
    25   15   16 ar
    26   15   33 1
    27   16   17 ar
    28   16   34 1
    29   17   18 ar
    30   17   35 1
    31   18   19 ar
    32   18   36 1
    33   19   37 1
    34   20   21 1
    35   20   38 1
    36   20   39 1
    37   21   22 2
    38   21   23 am
    39   23   24 1
    40   23   40 1
    41   24   41 1
@<TRIPOS>MOLECULE
CHEMBL470929
   62    66     0     0     0
SMALL
USER_CHARGES

@<TRIPOS>ATOM
      1 C1          4.4369  -17.9819    1.0790 C.ar      1 <0>        -0.1027
      2 C2          3.5644  -16.9966    0.6395 C.ar      1 <0>        -0.0928
      3 C3          4.0078  -15.6898    0.5517 C.ar      1 <0>        -0.0636
      4 C4          5.3007  -15.3882    0.8998 C.ar      1 <0>        -0.1382
      5 C5          6.2170  -16.3649    1.3514 C.ar      1 <0>         0.0988
      6 C6          5.7293  -17.6900    1.4285 C.ar      1 <0>        -0.0620
      7 N1          7.4528  -15.9117    1.6552 N.2       1 <0>        -0.5097
      8 C7          7.7887  -14.6487    1.5414 C.2       1 <0>         0.3346
      9 S1          6.2769  -13.9044    0.9458 S.3       1 <0>        -0.0368
     10 O1          8.9773  -14.0593    1.8076 O.3       1 <0>        -0.1849
     11 C8          9.1142  -12.7382    1.5163 C.ar      1 <0>         0.0379
     12 C9          8.5486  -11.7825    2.3476 C.ar      1 <0>        -0.0724
     13 C10         8.6876  -10.4405    2.0517 C.ar      1 <0>        -0.1247
     14 C11         9.3927  -10.0485    0.9233 C.ar      1 <0>         0.1341
     15 C12         9.9579  -11.0042    0.0919 C.ar      1 <0>        -0.1905
     16 C13         9.8242  -12.3459    0.3910 C.ar      1 <0>        -0.0588
     17 O2          9.5296   -8.7275    0.6321 O.3       1 <0>        -0.3216
     18 C14        10.2683   -8.3958   -0.5454 C.3       1 <0>         0.0224
     19 C15        10.3149   -6.8751   -0.7068 C.3       1 <0>        -0.0008
     20 N2         11.0482   -6.2852    0.4211 N.4       1 <0>        -0.3859
     21 C16        10.9550   -4.8220    0.3518 C.3       1 <0>         0.0013
     22 C17        11.6482   -4.2047    1.5683 C.3       1 <0>        -0.1694
     23 C18        13.1211   -4.6242    1.5771 C.3       1 <0>         0.1378
     24 C19        13.2062   -6.1532    1.5744 C.3       1 <0>        -0.1696
     25 C20        12.4553   -6.6983    0.3577 C.3       1 <0>        -0.0056
     26 N3         13.7727   -4.0994    2.7797 N.am      1 <0>        -0.5993
     27 C21        14.8966   -3.1879    2.6050 C.3       1 <0>         0.1098
     28 C22        15.1421   -2.3893    3.8858 C.3       1 <0>        -0.1393
     29 C23        15.2236   -3.3658    5.0653 C.3       1 <0>        -0.1280
     30 C24        13.8407   -3.9874    5.2752 C.3       1 <0>        -0.1386
     31 C25        13.2970   -4.4812    3.9655 C.2       1 <0>         0.5281
     32 O3         12.3788   -5.2734    3.9875 O.2       1 <0>        -0.5557
     33 H1          4.0881  -19.0014    1.1515 H         1 <0>         0.1402
     34 H2          2.5496  -17.2478    0.3684 H         1 <0>         0.1437
     35 H3          3.3410  -14.9115    0.2111 H         1 <0>         0.1363
     36 H4          6.3826  -18.4806    1.7671 H         1 <0>         0.1381
     37 H5          7.9992  -12.0877    3.2259 H         1 <0>         0.1495
     38 H6          8.2470   -9.6964    2.6986 H         1 <0>         0.1480
     39 H7         10.5064  -10.6989   -0.7870 H         1 <0>         0.1416
     40 H8         10.2687  -13.0898   -0.2536 H         1 <0>         0.1473
     41 H9         11.2834   -8.7833   -0.4586 H         1 <0>         0.0893
     42 H10         9.7834   -8.8388   -1.4153 H         1 <0>         0.1129
     43 H11        10.8198   -6.6240   -1.6396 H         1 <0>         0.1510
     44 H12         9.2990   -6.4804   -0.7259 H         1 <0>         0.1442
     45 H13        11.4395   -4.4703   -0.5591 H         1 <0>         0.1295
     46 H14         9.9063   -4.5252    0.3423 H         1 <0>         0.1344
     47 H15        11.5795   -3.1182    1.5140 H         1 <0>         0.1111
     48 H16        11.1644   -4.5556    2.4798 H         1 <0>         0.1136
     49 H17        13.6176   -4.2299    0.6905 H         1 <0>         0.1028
     50 H18        14.2511   -6.4595    1.5245 H         1 <0>         0.1099
     51 H19        12.7547   -6.5445    2.4861 H         1 <0>         0.1183
     52 H20        12.5141   -7.7867    0.3526 H         1 <0>         0.1300
     53 H21        12.9077   -6.3066   -0.5534 H         1 <0>         0.1303
     54 H22        15.7909   -3.7613    2.3610 H         1 <0>         0.0727
     55 H23        14.6792   -2.5003    1.7877 H         1 <0>         0.0804
     56 H24        16.0797   -1.8400    3.8002 H         1 <0>         0.0927
     57 H25        14.3200   -1.6915    4.0449 H         1 <0>         0.0756
     58 H26        15.9484   -4.1492    4.8437 H         1 <0>         0.0731
     59 H27        15.5255   -2.8298    5.9652 H         1 <0>         0.0846
     60 H28        13.9203   -4.8202    5.9739 H         1 <0>         0.1064
     61 H29        13.1645   -3.2367    5.6842 H         1 <0>         0.1049
     62 H30        10.6436   -6.6052    1.2883 H         1 <0>         0.4337
@<TRIPOS>BOND
     1    1    6 ar
     2    1    2 ar
     3    1   33 1
     4    2    3 ar
     5    2   34 1
     6    3    4 ar
     7    3   35 1
     8    4    9 1
     9    4    5 ar
    10    5    6 ar
    11    5    7 1
    12    6   36 1
    13    7    8 2
    14    8    9 1
    15    8   10 1
    16   10   11 1
    17   11   16 ar
    18   11   12 ar
    19   12   13 ar
    20   12   37 1
    21   13   14 ar
    22   13   38 1
    23   14   15 ar
    24   14   17 1
    25   15   16 ar
    26   15   39 1
    27   16   40 1
    28   17   18 1
    29   18   19 1
    30   18   41 1
    31   18   42 1
    32   19   20 1
    33   19   43 1
    34   19   44 1
    35   20   25 1
    36   20   21 1
    37   20   62 1
    38   21   22 1
    39   21   45 1
    40   21   46 1
    41   22   23 1
    42   22   47 1
    43   22   48 1
    44   23   24 1
    45   23   26 1
    46   23   49 1
    47   24   25 1
    48   24   50 1
    49   24   51 1
    50   25   52 1
    51   25   53 1
    52   26   31 am
    53   26   27 1
    54   27   28 1
    55   27   54 1
    56   27   55 1
    57   28   29 1
    58   28   56 1
    59   28   57 1
    60   29   30 1
    61   29   58 1
    62   29   59 1
    63   30   31 1
    64   30   60 1
    65   30   61 1
    66   31   32 2
@<TRIPOS>MOLECULE
CHEMBL165407
   41    43     0     0     0
SMALL
USER_CHARGES

@<TRIPOS>ATOM
      1 C1         -0.0167    1.3784    0.0096 C.ar      1 <0>        -0.0532
      2 C2          1.1695    2.0865    0.0021 C.ar      1 <0>        -0.1411
      3 C3          2.3802    1.4093   -0.0131 C.ar      1 <0>         0.1086
      4 C4          2.3963    0.0221   -0.0206 C.ar      1 <0>        -0.2028
      5 C5          1.2074   -0.6814   -0.0130 C.ar      1 <0>        -0.0745
      6 C6          0.0021   -0.0041    0.0020 C.ar      1 <0>        -0.0910
      7 C7         -1.2934   -0.7740    0.0107 C.3       1 <0>        -0.0074
      8 C8         -1.7392   -1.0230   -1.4071 C.2       1 <0>         0.0613
      9 C9         -2.0058   -2.2756   -1.8578 C.2       1 <0>        -0.2277
     10 S1         -2.4689   -1.9261   -3.5466 S.3       1 <0>         0.1144
     11 C10        -2.2768   -0.2547   -3.4976 C.2       1 <0>         0.0309
     12 N1         -1.8936   -0.0341   -2.2648 N.2       1 <0>        -0.5103
     13 O1          3.5484    2.1036   -0.0209 O.3       1 <0>        -0.3293
     14 C11         4.7565    1.3405   -0.0365 C.3       1 <0>         0.0278
     15 C12         5.9580    2.2878   -0.0434 C.3       1 <0>         0.0039
     16 N2          5.9923    3.0443    1.2153 N.4       1 <0>        -0.3956
     17 C13         6.3189    2.1401    2.3476 C.3       1 <0>        -0.0103
     18 C14         6.8622    3.1078    3.4287 C.3       1 <0>        -0.1447
     19 C15         7.6591    4.1407    2.5992 C.3       1 <0>        -0.1450
     20 C16         7.0764    4.0497    1.1767 C.3       1 <0>        -0.0087
     21 H1         -0.9594    1.9052    0.0259 H         1 <0>         0.1361
     22 H2          1.1543    3.1664    0.0076 H         1 <0>         0.1318
     23 H3          3.3375   -0.5074   -0.0328 H         1 <0>         0.1255
     24 H4          1.2194   -1.7613   -0.0189 H         1 <0>         0.1286
     25 H5         -1.1460   -1.7274    0.5180 H         1 <0>         0.0924
     26 H6         -2.0553   -0.1973    0.5352 H         1 <0>         0.0927
     27 H7         -1.9525   -3.2212   -1.3388 H         1 <0>         0.1969
     28 H8         -2.4352    0.4623   -4.2895 H         1 <0>         0.2186
     29 H9          4.7979    0.7076    0.8500 H         1 <0>         0.0846
     30 H10         4.7806    0.7165   -0.9299 H         1 <0>         0.1069
     31 H11         6.8762    1.7093   -0.1448 H         1 <0>         0.1481
     32 H12         5.8702    2.9798   -0.8810 H         1 <0>         0.1409
     33 H13         5.4236    1.6298    2.7029 H         1 <0>         0.1333
     34 H14         7.0836    1.4199    2.0566 H         1 <0>         0.1346
     35 H15         6.0428    3.5904    3.9613 H         1 <0>         0.0984
     36 H16         7.5180    2.5819    4.1227 H         1 <0>         0.1173
     37 H17         7.5152    5.1427    3.0036 H         1 <0>         0.1056
     38 H18         8.7183    3.8835    2.5913 H         1 <0>         0.1044
     39 H19         7.8509    3.7340    0.4777 H         1 <0>         0.1312
     40 H20         6.6745    5.0177    0.8774 H         1 <0>         0.1329
     41 H21         5.1043    3.4961    1.3746 H         1 <0>         0.4338
@<TRIPOS>BOND
     1    1    6 ar
     2    1    2 ar
     3    1   21 1
     4    2    3 ar
     5    2   22 1
     6    3    4 ar
     7    3   13 1
     8    4    5 ar
     9    4   23 1
    10    5    6 ar
    11    5   24 1
    12    6    7 1
    13    7    8 1
    14    7   25 1
    15    7   26 1
    16    8   12 1
    17    8    9 2
    18    9   10 1
    19    9   27 1
    20   10   11 1
    21   11   12 2
    22   11   28 1
    23   13   14 1
    24   14   15 1
    25   14   29 1
    26   14   30 1
    27   15   16 1
    28   15   31 1
    29   15   32 1
    30   16   20 1
    31   16   17 1
    32   16   41 1
    33   17   18 1
    34   17   33 1
    35   17   34 1
    36   18   19 1
    37   18   35 1
    38   18   36 1
    39   19   20 1
    40   19   37 1
    41   19   38 1
    42   20   39 1
    43   20   40 1
@<TRIPOS>MOLECULE
CHEMBL517694
   65    69     0     0     0
SMALL
USER_CHARGES

@<TRIPOS>ATOM
      1 C1         -1.8542   -0.2045    2.3714 C.ar      1 <0>        -0.1166
      2 C2         -0.6544    0.3545    2.7588 C.ar      1 <0>        -0.0827
      3 C3          0.4515   -0.4666    2.9935 C.ar      1 <0>        -0.0890
      4 C4          0.3328   -1.8495    2.8337 C.ar      1 <0>        -0.0830
      5 C5         -0.8734   -2.3944    2.4459 C.ar      1 <0>        -0.1083
      6 C6         -1.9644   -1.5750    2.2151 C.ar      1 <0>        -0.1805
      7 C7         -3.2790   -2.1782    1.7920 C.3       1 <0>         0.0447
      8 N1         -3.3344   -2.2525    0.3259 N.4       1 <0>        -0.3671
      9 C8         -3.2380   -0.8852   -0.2213 C.3       1 <0>        -0.0205
     10 C9         -2.6962   -0.9745   -1.6260 C.3       1 <0>        -0.1434
     11 C10        -3.8297   -0.9687   -2.6686 C.3       1 <0>        -0.1460
     12 C11        -5.0272   -1.8289   -2.2168 C.3       1 <0>         0.1461
     13 C12        -4.5952   -3.1209   -1.5716 C.3       1 <0>        -0.1469
     14 C13        -4.5053   -2.9159   -0.0448 C.3       1 <0>        -0.0255
     15 N2         -5.8580   -2.1359   -3.3837 N.pl3     1 <0>        -0.7472
     16 C14        -6.8338   -1.2266   -3.8065 C.ar      1 <0>         0.1808
     17 C15        -7.0111   -0.0305   -3.1236 C.ar      1 <0>        -0.1591
     18 C16        -7.9741    0.8667   -3.5417 C.ar      1 <0>        -0.1447
     19 C17        -8.7642    0.5733   -4.6436 C.ar      1 <0>         0.0743
     20 C18        -8.5879   -0.6217   -5.3261 C.ar      1 <0>        -0.0929
     21 C19        -7.6215   -1.5172   -4.9126 C.ar      1 <0>        -0.1503
     22 O1         -9.7122    1.4572   -5.0548 O.3       1 <0>        -0.2605
     23 C20        -9.8447    2.6179   -4.3624 C.ar      1 <0>         0.1055
     24 C21        -9.1083    3.7352   -4.7356 C.ar      1 <0>        -0.1269
     25 C22        -9.2397    4.9147   -4.0353 C.ar      1 <0>        -0.0559
     26 C23       -10.1148    4.9861   -2.9494 C.ar      1 <0>        -0.0153
     27 C24       -10.8536    3.8610   -2.5776 C.ar      1 <0>        -0.0752
     28 C25       -10.7206    2.6866   -3.2862 C.ar      1 <0>        -0.1273
     29 C26       -10.2582    6.2486   -2.1956 C.2       1 <0>         0.2250
     30 N3         -9.6251    7.3698   -2.4505 N.2       1 <0>        -0.4673
     31 C27       -10.0122    8.2936   -1.5573 C.2       1 <0>        -0.0376
     32 C28       -10.9073    7.7205   -0.7331 C.2       1 <0>        -0.0652
     33 O2        -11.0635    6.4437   -1.1368 O.3       1 <0>        -0.1971
     34 C29         1.7385    0.1240    3.4077 C.2       1 <0>         0.5089
     35 O3          1.8393    1.3348    3.5464 O.co2     1 <0>        -0.6719
     36 O4          2.7046   -0.5974    3.6124 O.co2     1 <0>        -0.6718
     37 H1         -2.7111    0.4285    2.1940 H         1 <0>         0.1235
     38 H2         -0.5697    1.4243    2.8801 H         1 <0>         0.1391
     39 H3          1.1835   -2.4901    3.0131 H         1 <0>         0.1389
     40 H4         -0.9665   -3.4632    2.3216 H         1 <0>         0.1224
     41 H5         -3.3702   -3.1806    2.2103 H         1 <0>         0.1326
     42 H6         -4.0975   -1.5570    2.1554 H         1 <0>         0.1309
     43 H7         -4.2261   -0.4254   -0.2372 H         1 <0>         0.1274
     44 H8         -2.5648   -0.2894    0.3950 H         1 <0>         0.1484
     45 H9         -2.0392   -0.1242   -1.8092 H         1 <0>         0.1098
     46 H10        -2.1222   -1.8954   -1.7287 H         1 <0>         0.0825
     47 H11        -4.1665    0.0566   -2.8214 H         1 <0>         0.0813
     48 H12        -3.4472   -1.3597   -3.6114 H         1 <0>         0.0851
     49 H13        -5.6216   -1.2591   -1.5026 H         1 <0>         0.0811
     50 H14        -5.3244   -3.9004   -1.7925 H         1 <0>         0.1153
     51 H15        -3.6189   -3.4130   -1.9583 H         1 <0>         0.0940
     52 H16        -4.5318   -3.8891    0.4455 H         1 <0>         0.1333
     53 H17        -5.3638   -2.3310    0.2853 H         1 <0>         0.1267
     54 H18        -5.7316   -2.9695   -3.8633 H         1 <0>         0.4027
     55 H19        -6.3963    0.1979   -2.2655 H         1 <0>         0.1207
     56 H20        -8.1124    1.7968   -3.0105 H         1 <0>         0.1282
     57 H21        -9.2037   -0.8495   -6.1836 H         1 <0>         0.1355
     58 H22        -7.4814   -2.4455   -5.4466 H         1 <0>         0.1306
     59 H23        -8.4317    3.6793   -5.5755 H         1 <0>         0.1422
     60 H24        -8.6663    5.7827   -4.3256 H         1 <0>         0.1478
     61 H25       -11.5312    3.9122   -1.7381 H         1 <0>         0.1400
     62 H26       -11.2950    1.8172   -3.0020 H         1 <0>         0.1403
     63 H27        -9.6662    9.3155   -1.5087 H         1 <0>         0.1900
     64 H28       -11.4104    8.1959    0.0960 H         1 <0>         0.2212
     65 H29        -2.5428   -2.7864   -0.0005 H         1 <0>         0.4193
@<TRIPOS>BOND
     1    1    6 ar
     2    1    2 ar
     3    1   37 1
     4    2    3 ar
     5    2   38 1
     6    3    4 ar
     7    3   34 1
     8    4    5 ar
     9    4   39 1
    10    5    6 ar
    11    5   40 1
    12    6    7 1
    13    7    8 1
    14    7   41 1
    15    7   42 1
    16    8   14 1
    17    8    9 1
    18    8   65 1
    19    9   10 1
    20    9   43 1
    21    9   44 1
    22   10   11 1
    23   10   45 1
    24   10   46 1
    25   11   12 1
    26   11   47 1
    27   11   48 1
    28   12   13 1
    29   12   15 1
    30   12   49 1
    31   13   14 1
    32   13   50 1
    33   13   51 1
    34   14   52 1
    35   14   53 1
    36   15   16 1
    37   15   54 1
    38   16   21 ar
    39   16   17 ar
    40   17   18 ar
    41   17   55 1
    42   18   19 ar
    43   18   56 1
    44   19   20 ar
    45   19   22 1
    46   20   21 ar
    47   20   57 1
    48   21   58 1
    49   22   23 1
    50   23   28 ar
    51   23   24 ar
    52   24   25 ar
    53   24   59 1
    54   25   26 ar
    55   25   60 1
    56   26   27 ar
    57   26   29 1
    58   27   28 ar
    59   27   61 1
    60   28   62 1
    61   29   33 1
    62   29   30 2
    63   30   31 1
    64   31   32 2
    65   31   63 1
    66   32   33 1
    67   32   64 1
    68   34   35 2
    69   34   36 1
@<TRIPOS>MOLECULE
CHEMBL517694__1
   65    69     0     0     0
SMALL
USER_CHARGES

@<TRIPOS>ATOM
      1 C1         -1.8758    3.5513   -1.6296 C.ar      1 <0>        -0.1145
      2 C2         -0.7580    4.3587   -1.6558 C.ar      1 <0>        -0.0835
      3 C3          0.4907    3.8283   -1.3219 C.ar      1 <0>        -0.0889
      4 C4          0.5972    2.4820   -0.9636 C.ar      1 <0>        -0.0833
      5 C5         -0.5293    1.6865   -0.9419 C.ar      1 <0>        -0.1087
      6 C6         -1.7628    2.2188   -1.2739 C.ar      1 <0>        -0.1820
      7 C7         -2.9890    1.3431   -1.2473 C.3       1 <0>         0.0527
      8 N1         -3.1760    0.7223   -2.5654 N.4       1 <0>        -0.3777
      9 C8         -3.5074    1.7557   -3.5619 C.3       1 <0>        -0.0170
     10 C9         -3.1563    1.3864   -4.9300 C.3       1 <0>        -0.1516
     11 C10        -3.9383    0.1313   -5.3869 C.3       1 <0>        -0.1513
     12 C11        -3.3424   -1.0885   -4.7341 C.3       1 <0>         0.1418
     13 C12        -4.0061   -1.4456   -3.3897 C.3       1 <0>        -0.1520
     14 C13        -4.2797   -0.2091   -2.5163 C.3       1 <0>        -0.0125
     15 N2         -3.4847   -2.2265   -5.6457 N.pl3     1 <0>        -0.7463
     16 C14        -2.5291   -2.4473   -6.6435 C.ar      1 <0>         0.1779
     17 C15        -1.4424   -1.5913   -6.7664 C.ar      1 <0>        -0.1573
     18 C16        -0.4994   -1.8102   -7.7511 C.ar      1 <0>        -0.1440
     19 C17        -0.6373   -2.8850   -8.6175 C.ar      1 <0>         0.0767
     20 C18        -1.7228   -3.7403   -8.4957 C.ar      1 <0>        -0.0942
     21 C19        -2.6636   -3.5260   -7.5078 C.ar      1 <0>        -0.1493
     22 O1          0.2917   -3.0999   -9.5869 O.3       1 <0>        -0.2601
     23 C20         1.3422   -2.2426   -9.6646 C.ar      1 <0>         0.1026
     24 C21         2.5043   -2.5043   -8.9497 C.ar      1 <0>        -0.1266
     25 C22         3.5721   -1.6366   -9.0256 C.ar      1 <0>        -0.0561
     26 C23         3.4852   -0.4933   -9.8228 C.ar      1 <0>        -0.0123
     27 C24         2.3155   -0.2340  -10.5402 C.ar      1 <0>        -0.0753
     28 C25         1.2539   -1.1092  -10.4632 C.ar      1 <0>        -0.1268
     29 C26         4.6276    0.4398   -9.9065 C.2       1 <0>         0.2230
     30 N3          5.7764    0.3027   -9.2865 N.2       1 <0>        -0.4661
     31 C27         6.5627    1.3424   -9.6055 C.2       1 <0>        -0.0371
     32 C28         5.8748    2.1374  -10.4443 C.2       1 <0>        -0.0640
     33 O2          4.6673    1.5689  -10.6351 O.3       1 <0>        -0.1969
     34 C29         1.6912    4.6856   -1.3479 C.2       1 <0>         0.5091
     35 O3          1.5947    5.8634   -1.6623 O.co2     1 <0>        -0.6723
     36 O4          2.7827    4.2183   -1.0552 O.co2     1 <0>        -0.6714
     37 H1         -2.8424    3.9610   -1.8831 H         1 <0>         0.1230
     38 H2         -0.8476    5.3984   -1.9340 H         1 <0>         0.1387
     39 H3          1.5593    2.0652   -0.7047 H         1 <0>         0.1387
     40 H4         -0.4484    0.6456   -0.6655 H         1 <0>         0.1220
     41 H5         -2.8638    0.5654   -0.4939 H         1 <0>         0.1325
     42 H6         -3.8623    1.9481   -1.0034 H         1 <0>         0.1320
     43 H7         -4.5788    1.9511   -3.5180 H         1 <0>         0.1257
     44 H8         -2.9783    2.6726   -3.3020 H         1 <0>         0.1373
     45 H9         -3.3917    2.2165   -5.5961 H         1 <0>         0.1181
     46 H10        -2.0872    1.1800   -4.9815 H         1 <0>         0.0873
     47 H11        -4.9838    0.2270   -5.0939 H         1 <0>         0.0790
     48 H12        -3.8704    0.0343   -6.4704 H         1 <0>         0.0961
     49 H13        -2.2806   -0.9107   -4.5638 H         1 <0>         0.0774
     50 H14        -4.9503   -1.9531   -3.5871 H         1 <0>         0.1096
     51 H15        -3.3514   -2.1246   -2.8434 H         1 <0>         0.0954
     52 H16        -4.4327   -0.5272   -1.4850 H         1 <0>         0.1320
     53 H17        -5.1820    0.2875   -2.8731 H         1 <0>         0.1292
     54 H18        -4.2415   -2.8268   -5.5575 H         1 <0>         0.4021
     55 H19        -1.3352   -0.7545   -6.0922 H         1 <0>         0.1207
     56 H20         0.3455   -1.1444   -7.8470 H         1 <0>         0.1296
     57 H21        -1.8296   -4.5765   -9.1707 H         1 <0>         0.1355
     58 H22        -3.5062   -4.1944   -7.4102 H         1 <0>         0.1302
     59 H23         2.5708   -3.3887   -8.3334 H         1 <0>         0.1417
     60 H24         4.4750   -1.8403   -8.4690 H         1 <0>         0.1481
     61 H25         2.2444    0.6493  -11.1575 H         1 <0>         0.1403
     62 H26         0.3505   -0.9117  -11.0212 H         1 <0>         0.1400
     63 H27         7.5690    1.5110   -9.2513 H         1 <0>         0.1903
     64 H28         6.2258    3.0584  -10.8859 H         1 <0>         0.2215
     65 H29        -2.3331    0.2398   -2.8390 H         1 <0>         0.4213
@<TRIPOS>BOND
     1    1    6 ar
     2    1    2 ar
     3    1   37 1
     4    2    3 ar
     5    2   38 1
     6    3    4 ar
     7    3   34 1
     8    4    5 ar
     9    4   39 1
    10    5    6 ar
    11    5   40 1
    12    6    7 1
    13    7    8 1
    14    7   41 1
    15    7   42 1
    16    8   14 1
    17    8    9 1
    18    8   65 1
    19    9   10 1
    20    9   43 1
    21    9   44 1
    22   10   11 1
    23   10   45 1
    24   10   46 1
    25   11   12 1
    26   11   47 1
    27   11   48 1
    28   12   13 1
    29   12   15 1
    30   12   49 1
    31   13   14 1
    32   13   50 1
    33   13   51 1
    34   14   52 1
    35   14   53 1
    36   15   16 1
    37   15   54 1
    38   16   21 ar
    39   16   17 ar
    40   17   18 ar
    41   17   55 1
    42   18   19 ar
    43   18   56 1
    44   19   20 ar
    45   19   22 1
    46   20   21 ar
    47   20   57 1
    48   21   58 1
    49   22   23 1
    50   23   28 ar
    51   23   24 ar
    52   24   25 ar
    53   24   59 1
    54   25   26 ar
    55   25   60 1
    56   26   27 ar
    57   26   29 1
    58   27   28 ar
    59   27   61 1
    60   28   62 1
    61   29   33 1
    62   29   30 2
    63   30   31 1
    64   31   32 2
    65   31   63 1
    66   32   33 1
    67   32   64 1
    68   34   35 2
    69   34   36 1
@<TRIPOS>MOLECULE
CHEMBL480333
   63    67     0     0     0
SMALL
USER_CHARGES

@<TRIPOS>ATOM
      1 C1         -0.0167    1.3781    0.0096 C.ar      1 <0>        -0.1082
      2 C2          1.1709    2.0855    0.0021 C.ar      1 <0>        -0.1228
      3 C3          2.3773    1.4107   -0.0130 C.ar      1 <0>        -0.0958
      4 C4          2.3960    0.0285   -0.0201 C.ar      1 <0>        -0.0996
      5 C5          1.2084   -0.6789   -0.0117 C.ar      1 <0>        -0.0956
      6 C6          0.0021   -0.0041    0.0020 C.ar      1 <0>        -0.1226
      7 C7          3.7112   -0.7071   -0.0376 C.3       1 <0>         0.1042
      8 O1          4.1410   -0.9464    1.3041 O.3       1 <0>        -0.3107
      9 C8          5.3195   -1.6054    1.4667 C.ar      1 <0>         0.0847
     10 C9          6.0477   -2.0072    0.3567 C.ar      1 <0>        -0.1593
     11 C10         7.2446   -2.6765    0.5209 C.ar      1 <0>        -0.1453
     12 C11         7.7188   -2.9472    1.7976 C.ar      1 <0>         0.1724
     13 C12         6.9891   -2.5446    2.9083 C.ar      1 <0>        -0.1572
     14 C13         5.7952   -1.8704    2.7423 C.ar      1 <0>        -0.1048
     15 N1          8.9312   -3.6258    1.9649 N.pl3     1 <0>        -0.7464
     16 C14         9.4311   -3.9112    3.3121 C.3       1 <0>         0.1462
     17 C15        10.2003   -2.6959    3.8380 C.3       1 <0>        -0.1621
     18 C16        10.8438   -3.0594    5.1857 C.3       1 <0>         0.0349
     19 H1         11.2921   -2.1938    5.6734 H         1 <0>         0.1491
     20 C17         9.7598   -3.7279    6.0623 C.3       1 <0>        -0.1405
     21 C18         9.8415   -5.2291    5.7154 C.3       1 <0>        -0.1418
     22 C19        10.9675   -5.3312    4.6609 C.3       1 <0>         0.0413
     23 H2         11.5211   -6.2669    4.7384 H         1 <0>         0.1562
     24 C20        10.3586   -5.1288    3.2639 C.3       1 <0>        -0.1517
     25 N2         11.8369   -4.1350    4.9241 N.4       1 <0>        -0.3956
     26 C21        12.6802   -4.3590    6.1059 C.3       1 <0>         0.0558
     27 C22        13.7533   -5.3638    5.7742 C.ar      1 <0>        -0.1776
     28 C23        13.5159   -6.7135    5.9663 C.ar      1 <0>        -0.1147
     29 C24        14.4935   -7.6387    5.6653 C.ar      1 <0>        -0.0836
     30 C25        15.7256   -7.2103    5.1649 C.ar      1 <0>        -0.0911
     31 C26        15.9580   -5.8460    4.9731 C.ar      1 <0>        -0.0835
     32 C27        14.9692   -4.9326    5.2736 C.ar      1 <0>        -0.1103
     33 C28        16.7765   -8.1939    4.8410 C.2       1 <0>         0.5093
     34 O2         16.5702   -9.3873    5.0104 O.co2     1 <0>        -0.6727
     35 O3         17.8539   -7.8157    4.4032 O.co2     1 <0>        -0.6724
     36 H3         -0.9591    1.9053    0.0259 H         1 <0>         0.1255
     37 H4          1.1563    3.1654    0.0076 H         1 <0>         0.1262
     38 H5          3.3051    1.9634   -0.0196 H         1 <0>         0.1237
     39 H6          1.2231   -1.7588   -0.0176 H         1 <0>         0.1240
     40 H7         -0.9258   -0.5567    0.0082 H         1 <0>         0.1263
     41 H8          3.5884   -1.6586   -0.5549 H         1 <0>         0.0702
     42 H9          4.4573   -0.1052   -0.5563 H         1 <0>         0.0700
     43 H10         5.6786   -1.7969   -0.6362 H         1 <0>         0.1296
     44 H11         7.8114   -2.9896   -0.3435 H         1 <0>         0.1248
     45 H12         7.3572   -2.7548    3.9016 H         1 <0>         0.1235
     46 H13         5.2298   -1.5530    3.6060 H         1 <0>         0.1312
     47 H14         9.4406   -3.9072    1.1888 H         1 <0>         0.4030
     48 H15         8.5907   -4.1215    3.9736 H         1 <0>         0.0985
     49 H16        10.9772   -2.4192    3.1253 H         1 <0>         0.0905
     50 H17         9.5136   -1.8605    3.9748 H         1 <0>         0.1123
     51 H18         9.9761   -3.5704    7.1190 H         1 <0>         0.0998
     52 H19         8.7744   -3.3341    5.8132 H         1 <0>         0.1090
     53 H20        10.0979   -5.8097    6.6015 H         1 <0>         0.1012
     54 H21         8.8963   -5.5734    5.2956 H         1 <0>         0.1118
     55 H22         9.7840   -6.0150    2.9944 H         1 <0>         0.1161
     56 H23        11.1427   -4.9614    2.5254 H         1 <0>         0.0953
     57 H24        13.1430   -3.4187    6.4056 H         1 <0>         0.1286
     58 H25        12.0670   -4.7388    6.9231 H         1 <0>         0.1287
     59 H26        12.5630   -7.0431    6.3532 H         1 <0>         0.1205
     60 H27        14.3071   -8.6917    5.8164 H         1 <0>         0.1381
     61 H28        16.9080   -5.5078    4.5866 H         1 <0>         0.1380
     62 H29        15.1458   -3.8780    5.1217 H         1 <0>         0.1211
     63 H30        12.4025   -3.9084    4.1198 H         1 <0>         0.4241
@<TRIPOS>BOND
     1    1    6 ar
     2    1    2 ar
     3    1   36 1
     4    2    3 ar
     5    2   37 1
     6    3    4 ar
     7    3   38 1
     8    4    5 ar
     9    4    7 1
    10    5    6 ar
    11    5   39 1
    12    6   40 1
    13    7    8 1
    14    7   41 1
    15    7   42 1
    16    8    9 1
    17    9   14 ar
    18    9   10 ar
    19   10   11 ar
    20   10   43 1
    21   11   12 ar
    22   11   44 1
    23   12   13 ar
    24   12   15 1
    25   13   14 ar
    26   13   45 1
    27   14   46 1
    28   15   16 1
    29   15   47 1
    30   16   24 1
    31   16   17 1
    32   16   48 1
    33   17   18 1
    34   17   49 1
    35   17   50 1
    36   18   19 1
    37   18   25 1
    38   18   20 1
    39   20   21 1
    40   20   51 1
    41   20   52 1
    42   21   22 1
    43   21   53 1
    44   21   54 1
    45   22   23 1
    46   22   24 1
    47   22   25 1
    48   24   55 1
    49   24   56 1
    50   25   26 1
    51   25   63 1
    52   26   27 1
    53   26   57 1
    54   26   58 1
    55   27   32 ar
    56   27   28 ar
    57   28   29 ar
    58   28   59 1
    59   29   30 ar
    60   29   60 1
    61   30   31 ar
    62   30   33 1
    63   31   32 ar
    64   31   61 1
    65   32   62 1
    66   33   34 2
    67   33   35 1
@<TRIPOS>MOLECULE
CHEMBL480334
   62    66     0     0     0
SMALL
USER_CHARGES

@<TRIPOS>ATOM
      1 C1         -0.0167    1.3781    0.0096 C.ar      1 <0>        -0.1244
      2 C2          1.1709    2.0855    0.0021 C.ar      1 <0>        -0.1172
      3 C3          2.3773    1.4107   -0.0130 C.ar      1 <0>        -0.1157
      4 C4          2.3960    0.0285   -0.0201 C.ar      1 <0>        -0.0757
      5 C5          1.2084   -0.6789   -0.0117 C.ar      1 <0>        -0.1165
      6 C6          0.0021   -0.0041    0.0020 C.ar      1 <0>        -0.1183
      7 C7          3.7112   -0.7071   -0.0376 C.3       1 <0>        -0.0389
      8 C8          4.1644   -0.9594    1.3773 C.ar      1 <0>        -0.1225
      9 C9          4.9523   -0.0263    2.0261 C.ar      1 <0>        -0.0633
     10 C10         5.3695   -0.2544    3.3227 C.ar      1 <0>        -0.1841
     11 C11         4.9967   -1.4227    3.9752 C.ar      1 <0>         0.2056
     12 C12         4.2052   -2.3579    3.3206 C.ar      1 <0>        -0.1955
     13 C13         3.7869   -2.1209    2.0259 C.ar      1 <0>        -0.0664
     14 N1          5.4172   -1.6567    5.2864 N.pl3     1 <0>        -0.7452
     15 C14         5.0231   -2.8894    5.9731 C.3       1 <0>         0.1453
     16 C15         3.6382   -2.7031    6.5996 C.3       1 <0>        -0.1617
     17 C16         3.3006   -3.9455    7.4393 C.3       1 <0>         0.0352
     18 H1          2.2723   -3.9298    7.8005 H         1 <0>         0.1492
     19 C17         3.5985   -5.1940    6.5774 C.3       1 <0>        -0.1403
     20 C18         5.0822   -5.5178    6.8504 C.3       1 <0>        -0.1416
     21 C19         5.5458   -4.4356    7.8526 C.3       1 <0>         0.0414
     22 H2          6.2944   -4.8127    8.5493 H         1 <0>         0.1565
     23 C20         6.0457   -3.2128    7.0662 C.3       1 <0>        -0.1520
     24 N2          4.2867   -4.0075    8.5508 N.4       1 <0>        -0.3957
     25 C21         3.8818   -5.0089    9.5463 C.3       1 <0>         0.0558
     26 C22         4.8291   -4.9647   10.7174 C.ar      1 <0>        -0.1778
     27 C23         5.9648   -5.7555   10.7146 C.ar      1 <0>        -0.1147
     28 C24         6.8361   -5.7205   11.7832 C.ar      1 <0>        -0.0835
     29 C25         6.5701   -4.8837   12.8700 C.ar      1 <0>        -0.0909
     30 C26         5.4218   -4.0878   12.8656 C.ar      1 <0>        -0.0835
     31 C27         4.5622   -4.1293   11.7879 C.ar      1 <0>        -0.1102
     32 C28         7.4971   -4.8411   14.0170 C.2       1 <0>         0.5093
     33 O1          8.5011   -5.5393   14.0179 O.co2     1 <0>        -0.6726
     34 O2          7.2615   -4.1077   14.9667 O.co2     1 <0>        -0.6722
     35 H3         -0.9591    1.9053    0.0259 H         1 <0>         0.1210
     36 H4          1.1563    3.1654    0.0076 H         1 <0>         0.1217
     37 H5          3.3051    1.9634   -0.0196 H         1 <0>         0.1200
     38 H6          1.2231   -1.7588   -0.0176 H         1 <0>         0.1190
     39 H7         -0.9258   -0.5567    0.0082 H         1 <0>         0.1210
     40 H8          3.5884   -1.6586   -0.5549 H         1 <0>         0.0803
     41 H9          4.4573   -0.1052   -0.5563 H         1 <0>         0.0808
     42 H10         5.2421    0.8816    1.5180 H         1 <0>         0.1224
     43 H11         5.9851    0.4746    3.8287 H         1 <0>         0.1212
     44 H12         3.9139   -3.2674    3.8249 H         1 <0>         0.1161
     45 H13         3.1678   -2.8455    1.5179 H         1 <0>         0.1206
     46 H14         5.9701   -1.0031    5.7424 H         1 <0>         0.4034
     47 H15         4.9882   -3.7090    5.2553 H         1 <0>         0.0994
     48 H16         3.6426   -1.8204    7.2390 H         1 <0>         0.0904
     49 H17         2.8946   -2.5817    5.8119 H         1 <0>         0.1122
     50 H18         2.9658   -6.0267    6.8845 H         1 <0>         0.0999
     51 H19         3.4471   -4.9708    5.5213 H         1 <0>         0.1087
     52 H20         5.1789   -6.5097    7.2917 H         1 <0>         0.1014
     53 H21         5.6602   -5.4537    5.9286 H         1 <0>         0.1116
     54 H22         7.0056   -3.4522    6.6087 H         1 <0>         0.1162
     55 H23         6.1583   -2.3531    7.7267 H         1 <0>         0.0954
     56 H24         2.8700   -4.7920    9.8890 H         1 <0>         0.1286
     57 H25         3.9077   -6.0008    9.0952 H         1 <0>         0.1287
     58 H26         6.1691   -6.4018    9.8739 H         1 <0>         0.1204
     59 H27         7.7216   -6.3388   11.7800 H         1 <0>         0.1382
     60 H28         5.2100   -3.4386   13.7023 H         1 <0>         0.1381
     61 H29         3.6765   -3.5113   11.7811 H         1 <0>         0.1210
     62 H30         4.3955   -3.1009    8.9802 H         1 <0>         0.4241
@<TRIPOS>BOND
     1    1    6 ar
     2    1    2 ar
     3    1   35 1
     4    2    3 ar
     5    2   36 1
     6    3    4 ar
     7    3   37 1
     8    4    5 ar
     9    4    7 1
    10    5    6 ar
    11    5   38 1
    12    6   39 1
    13    7    8 1
    14    7   40 1
    15    7   41 1
    16    8   13 ar
    17    8    9 ar
    18    9   10 ar
    19    9   42 1
    20   10   11 ar
    21   10   43 1
    22   11   12 ar
    23   11   14 1
    24   12   13 ar
    25   12   44 1
    26   13   45 1
    27   14   15 1
    28   14   46 1
    29   15   23 1
    30   15   16 1
    31   15   47 1
    32   16   17 1
    33   16   48 1
    34   16   49 1
    35   17   18 1
    36   17   24 1
    37   17   19 1
    38   19   20 1
    39   19   50 1
    40   19   51 1
    41   20   21 1
    42   20   52 1
    43   20   53 1
    44   21   22 1
    45   21   23 1
    46   21   24 1
    47   23   54 1
    48   23   55 1
    49   24   25 1
    50   24   62 1
    51   25   26 1
    52   25   56 1
    53   25   57 1
    54   26   31 ar
    55   26   27 ar
    56   27   28 ar
    57   27   58 1
    58   28   29 ar
    59   28   59 1
    60   29   30 ar
    61   29   32 1
    62   30   31 ar
    63   30   60 1
    64   31   61 1
    65   32   33 2
    66   32   34 1
@<TRIPOS>MOLECULE
CHEMBL1098504
   54    56     0     0     0
SMALL
USER_CHARGES

@<TRIPOS>ATOM
      1 C1          0.1031    0.6693   -0.9377 C.ar      1 <0>        -0.1008
      2 C2          1.2334    1.3940   -0.6137 C.ar      1 <0>        -0.1531
      3 C3          2.3687    0.7409   -0.1566 C.ar      1 <0>         0.0994
      4 C4          2.3687   -0.6401   -0.0250 C.ar      1 <0>        -0.1029
      5 C5          1.2383   -1.3647   -0.3491 C.ar      1 <0>        -0.1638
      6 C6          0.1032   -0.7115   -0.8061 C.ar      1 <0>         0.0881
      7 O1         -1.0095   -1.4249   -1.1252 O.3       1 <0>        -0.3206
      8 C7         -0.9388   -2.8432   -0.9655 C.3       1 <0>         0.0292
      9 C8         -2.2748   -3.4693   -1.3706 C.3       1 <0>         0.0376
     10 H1         -2.2429   -4.5432   -1.1865 H         1 <0>         0.1496
     11 C9         -3.4014   -2.8442   -0.5451 C.3       1 <0>        -0.1377
     12 C10        -4.7362   -3.4740   -0.9537 C.3       1 <0>        -0.1354
     13 C11        -4.9421   -3.2786   -2.4586 C.3       1 <0>        -0.1454
     14 C12        -3.7584   -3.8876   -3.2131 C.3       1 <0>        -0.0130
     15 N1         -2.5162   -3.2250   -2.7976 N.4       1 <0>        -0.3787
     16 C13        -1.3936   -3.7581   -3.5809 C.3       1 <0>        -0.0209
     17 C14        -1.5835   -3.3967   -5.0555 C.3       1 <0>        -0.1169
     18 C15        -0.4143   -3.9519   -5.8713 C.3       1 <0>        -0.1829
     19 C16        -0.6014   -3.5960   -7.3237 C.2       1 <0>         0.4887
     20 O2         -1.5792   -2.9574   -7.6738 O.co2     1 <0>        -0.6960
     21 O3          0.2252   -3.9466   -8.1486 O.co2     1 <0>        -0.6875
     22 O4          3.4815    1.4542    0.1620 O.3       1 <0>        -0.2538
     23 C17         3.4313    2.8061    0.0332 C.ar      1 <0>         0.0838
     24 C18         2.8116    3.5743    1.0084 C.ar      1 <0>        -0.1194
     25 C19         2.7616    4.9484    0.8756 C.ar      1 <0>        -0.0960
     26 C20         3.3290    5.5587   -0.2290 C.ar      1 <0>        -0.0329
     27 C21         3.9475    4.7944   -1.2027 C.ar      1 <0>        -0.0939
     28 C22         4.0046    3.4206   -1.0708 C.ar      1 <0>        -0.1072
     29 Cl1         3.2644    7.2857   -0.3939 Cl        1 <0>        -0.0564
     30 H2         -0.7822    1.1781   -1.2893 H         1 <0>         0.1379
     31 H3          1.2334    2.4691   -0.7165 H         1 <0>         0.1389
     32 H4          3.2526   -1.1487    0.3305 H         1 <0>         0.1409
     33 H5          1.2383   -2.4398   -0.2466 H         1 <0>         0.1364
     34 H6         -0.1447   -3.2409   -1.5975 H         1 <0>         0.0901
     35 H7         -0.7271   -3.0814    0.0769 H         1 <0>         0.1045
     36 H8         -3.2215   -3.0277    0.5142 H         1 <0>         0.1073
     37 H9         -3.4344   -1.7703   -0.7286 H         1 <0>         0.0960
     38 H10        -4.7224   -4.5392   -0.7230 H         1 <0>         0.0796
     39 H11        -5.5483   -2.9924   -0.4091 H         1 <0>         0.0923
     40 H12        -5.8634   -3.7727   -2.7670 H         1 <0>         0.1104
     41 H13        -5.0070   -2.2137   -2.6818 H         1 <0>         0.0878
     42 H14        -3.6945   -4.9525   -2.9894 H         1 <0>         0.1264
     43 H15        -3.9019   -3.7504   -4.2849 H         1 <0>         0.1401
     44 H16        -0.4605   -3.3269   -3.2184 H         1 <0>         0.1240
     45 H17        -1.3586   -4.8423   -3.4742 H         1 <0>         0.1250
     46 H18        -2.5167   -3.8279   -5.4180 H         1 <0>         0.0847
     47 H19        -1.6186   -2.3125   -5.1622 H         1 <0>         0.0837
     48 H20         0.5188   -3.5208   -5.5088 H         1 <0>         0.0662
     49 H21        -0.3792   -5.0361   -5.7646 H         1 <0>         0.0666
     50 H22         2.3683    3.0983    1.8706 H         1 <0>         0.1408
     51 H23         2.2791    5.5467    1.6343 H         1 <0>         0.1432
     52 H24         4.3898    5.2727   -2.0641 H         1 <0>         0.1453
     53 H25         4.4916    2.8247   -1.8286 H         1 <0>         0.1443
     54 H26        -2.5950   -2.2322   -2.9593 H         1 <0>         0.4265
@<TRIPOS>BOND
     1    1    6 ar
     2    1    2 ar
     3    1   30 1
     4    2    3 ar
     5    2   31 1
     6    3    4 ar
     7    3   22 1
     8    4    5 ar
     9    4   32 1
    10    5    6 ar
    11    5   33 1
    12    6    7 1
    13    7    8 1
    14    8    9 1
    15    8   34 1
    16    8   35 1
    17    9   10 1
    18    9   15 1
    19    9   11 1
    20   11   12 1
    21   11   36 1
    22   11   37 1
    23   12   13 1
    24   12   38 1
    25   12   39 1
    26   13   14 1
    27   13   40 1
    28   13   41 1
    29   14   15 1
    30   14   42 1
    31   14   43 1
    32   15   16 1
    33   15   54 1
    34   16   17 1
    35   16   44 1
    36   16   45 1
    37   17   18 1
    38   17   46 1
    39   17   47 1
    40   18   19 1
    41   18   48 1
    42   18   49 1
    43   19   20 2
    44   19   21 1
    45   22   23 1
    46   23   28 ar
    47   23   24 ar
    48   24   25 ar
    49   24   50 1
    50   25   26 ar
    51   25   51 1
    52   26   27 ar
    53   26   29 1
    54   27   28 ar
    55   27   52 1
    56   28   53 1
@<TRIPOS>MOLECULE
CHEMBL518156
   59    63     0     0     0
SMALL
USER_CHARGES

@<TRIPOS>ATOM
      1 C1          0.7212    1.5631    1.2897 C.ar      1 <0>        -0.1056
      2 C2          1.9279    2.2081    1.0924 C.ar      1 <0>        -0.1101
      3 C3          3.0676    1.4743    0.8216 C.ar      1 <0>        -0.1070
      4 C4          3.0009    0.0955    0.7485 C.ar      1 <0>        -0.1293
      5 C5          1.7944   -0.5496    0.9466 C.ar      1 <0>        -0.1141
      6 C6          0.6544    0.1843    1.2161 C.ar      1 <0>        -0.1122
      7 C7          4.2432   -0.7044    0.4522 C.3       1 <0>         0.1748
      8 C8          4.3801   -0.8962   -1.0609 C.3       1 <0>        -0.1698
      9 C9          5.5986   -1.7756   -1.3499 C.3       1 <0>        -0.0023
     10 N1          5.4281   -3.0821   -0.7031 N.4       1 <0>        -0.3845
     11 C10         5.3681   -2.9126    0.7537 C.3       1 <0>        -0.0104
     12 C11         4.1408   -2.0770    1.1236 C.3       1 <0>        -0.1310
     13 C12         6.5629   -3.9491   -1.0473 C.3       1 <0>         0.0001
     14 C13         6.3263   -5.3492   -0.4776 C.3       1 <0>         0.0224
     15 O1          5.1926   -5.9385   -1.1174 O.3       1 <0>        -0.3234
     16 C14         4.8439   -7.1923   -0.7235 C.ar      1 <0>         0.1310
     17 C15         5.5754   -7.8380    0.2625 C.ar      1 <0>        -0.1898
     18 C16         5.2213   -9.1116    0.6627 C.ar      1 <0>        -0.0620
     19 C17         4.1341   -9.7450    0.0786 C.ar      1 <0>         0.0656
     20 C18         3.4026   -9.0992   -0.9074 C.ar      1 <0>        -0.0579
     21 C19         3.7534   -7.8234   -1.3035 C.ar      1 <0>        -0.1283
     22 O2          3.7857  -10.9991    0.4722 O.3       1 <0>        -0.2015
     23 C20         3.1343  -11.1370    1.6487 C.2       1 <0>         0.4251
     24 N2          2.7259  -10.1479    2.3981 N.2       1 <0>        -0.5065
     25 C21         2.1131  -10.6594    3.5008 C.ar      1 <0>         0.0430
     26 C22         1.5002  -10.0868    4.6161 C.ar      1 <0>        -0.0692
     27 C23         0.9579  -10.8972    5.5890 C.ar      1 <0>        -0.1077
     28 C24         1.0175  -12.2771    5.4662 C.ar      1 <0>        -0.0941
     29 C25         1.6207  -12.8563    4.3684 C.ar      1 <0>        -0.0803
     30 C26         2.1713  -12.0559    3.3804 C.ar      1 <0>         0.0036
     31 O3          2.8078  -12.3115    2.2146 O.3       1 <0>        -0.1948
     32 O4          5.3883   -0.0117    0.9532 O.3       1 <0>        -0.5493
     33 H1         -0.1684    2.1361    1.5057 H         1 <0>         0.1299
     34 H2          1.9800    3.2853    1.1495 H         1 <0>         0.1300
     35 H3          4.0102    1.9782    0.6667 H         1 <0>         0.1222
     36 H4          1.7422   -1.6268    0.8892 H         1 <0>         0.1232
     37 H5         -0.2883   -0.3196    1.3705 H         1 <0>         0.1293
     38 H6          3.4830   -1.3783   -1.4494 H         1 <0>         0.1005
     39 H7          4.5095    0.0740   -1.5406 H         1 <0>         0.1175
     40 H8          5.6991   -1.9140   -2.4264 H         1 <0>         0.1337
     41 H9          6.4951   -1.2925   -0.9613 H         1 <0>         0.1360
     42 H10         5.2985   -3.8904    1.2302 H         1 <0>         0.1304
     43 H11         6.2695   -2.4053    1.0974 H         1 <0>         0.1402
     44 H12         4.0990   -1.9508    2.2055 H         1 <0>         0.1231
     45 H13         3.2387   -2.5836    0.7805 H         1 <0>         0.1043
     46 H14         6.6583   -4.0094   -2.1315 H         1 <0>         0.1442
     47 H15         7.4781   -3.5347   -0.6246 H         1 <0>         0.1515
     48 H16         7.2062   -5.9674   -0.6557 H         1 <0>         0.1127
     49 H17         6.1426   -5.2789    0.5945 H         1 <0>         0.0896
     50 H18         6.4220   -7.3450    0.7170 H         1 <0>         0.1387
     51 H19         5.7910   -9.6145    1.4301 H         1 <0>         0.1401
     52 H20         2.5565   -9.5925   -1.3625 H         1 <0>         0.1491
     53 H21         3.1812   -7.3189   -2.0681 H         1 <0>         0.1466
     54 H22         1.4517   -9.0125    4.7163 H         1 <0>         0.1364
     55 H23         0.4836  -10.4552    6.4528 H         1 <0>         0.1416
     56 H24         0.5893  -12.9029    6.2352 H         1 <0>         0.1463
     57 H25         1.6637  -13.9318    4.2796 H         1 <0>         0.1406
     58 H26         5.5164    0.8662    0.5685 H         1 <0>         0.3904
     59 H27         4.5723   -3.5074   -1.0267 H         1 <0>         0.4275
@<TRIPOS>BOND
     1    1    6 ar
     2    1    2 ar
     3    1   33 1
     4    2    3 ar
     5    2   34 1
     6    3    4 ar
     7    3   35 1
     8    4    5 ar
     9    4    7 1
    10    5    6 ar
    11    5   36 1
    12    6   37 1
    13    7   12 1
    14    7    8 1
    15    7   32 1
    16    8    9 1
    17    8   38 1
    18    8   39 1
    19    9   10 1
    20    9   40 1
    21    9   41 1
    22   10   11 1
    23   10   13 1
    24   10   59 1
    25   11   12 1
    26   11   42 1
    27   11   43 1
    28   12   44 1
    29   12   45 1
    30   13   14 1
    31   13   46 1
    32   13   47 1
    33   14   15 1
    34   14   48 1
    35   14   49 1
    36   15   16 1
    37   16   21 ar
    38   16   17 ar
    39   17   18 ar
    40   17   50 1
    41   18   19 ar
    42   18   51 1
    43   19   20 ar
    44   19   22 1
    45   20   21 ar
    46   20   52 1
    47   21   53 1
    48   22   23 1
    49   23   31 1
    50   23   24 2
    51   24   25 1
    52   25   30 ar
    53   25   26 ar
    54   26   27 ar
    55   26   54 1
    56   27   28 ar
    57   27   55 1
    58   28   29 ar
    59   28   56 1
    60   29   30 ar
    61   29   57 1
    62   30   31 1
    63   32   58 1
@<TRIPOS>MOLECULE
CHEMBL518156__1
   58    62     0     0     0
SMALL
USER_CHARGES

@<TRIPOS>ATOM
      1 C1          0.6679    1.4849    1.3374 C.ar      1 <0>        -0.1204
      2 C2          1.8680    2.1437    1.1459 C.ar      1 <0>        -0.1166
      3 C3          3.0151    1.4239    0.8684 C.ar      1 <0>        -0.1142
      4 C4          2.9622    0.0452    0.7829 C.ar      1 <0>        -0.1086
      5 C5          1.7623   -0.6137    0.9753 C.ar      1 <0>        -0.1112
      6 C6          0.6150    0.1062    1.2514 C.ar      1 <0>        -0.1167
      7 C7          4.2125   -0.7394    0.4794 C.3       1 <0>         0.1751
      8 C8          4.3518   -0.9143   -1.0353 C.3       1 <0>        -0.1351
      9 C9          5.5896   -1.7632   -1.3342 C.3       1 <0>         0.0609
     10 N1          5.4558   -3.0723   -0.6826 N.3       1 <0>        -0.5314
     11 C10         5.3680   -2.9327    0.7766 C.3       1 <0>         0.0537
     12 C11         4.1237   -2.1187    1.1385 C.3       1 <0>        -0.0988
     13 C12         6.5605   -3.9639   -1.0606 C.3       1 <0>         0.0560
     14 C13         6.2615   -5.3822   -0.5709 C.3       1 <0>         0.0594
     15 O1          5.1145   -5.8905   -1.2551 O.3       1 <0>        -0.2900
     16 C14         4.7117   -7.1489   -0.9344 C.ar      1 <0>         0.1546
     17 C15         5.4038   -7.8757    0.0232 C.ar      1 <0>        -0.2008
     18 C16         4.9947   -9.1540    0.3490 C.ar      1 <0>        -0.0596
     19 C17         3.8917   -9.7111   -0.2813 C.ar      1 <0>         0.0375
     20 C18         3.1997   -8.9843   -1.2390 C.ar      1 <0>        -0.0569
     21 C19         3.6054   -7.7038   -1.5607 C.ar      1 <0>        -0.1400
     22 O2          3.4892  -10.9698    0.0391 O.3       1 <0>        -0.1996
     23 C20         2.8169  -11.1451    1.1986 C.2       1 <0>         0.4275
     24 N2          2.4371  -10.1826    1.9962 N.2       1 <0>        -0.5051
     25 C21         1.7897  -10.7284    3.0621 C.ar      1 <0>         0.0476
     26 C22         1.1845  -10.1930    4.1999 C.ar      1 <0>        -0.0690
     27 C23         0.5975  -11.0328    5.1207 C.ar      1 <0>        -0.1104
     28 C24         0.6049  -12.4052    4.9234 C.ar      1 <0>        -0.1002
     29 C25         1.1999  -12.9477    3.8026 C.ar      1 <0>        -0.0815
     30 C26         1.7949  -12.1175    2.8663 C.ar      1 <0>        -0.0008
     31 O3          2.4369  -12.3347    1.6957 O.3       1 <0>        -0.1989
     32 O4          5.3504   -0.0399    0.9873 O.3       1 <0>        -0.5512
     33 H1         -0.2274    2.0469    1.5586 H         1 <0>         0.1225
     34 H2          1.9093    3.2208    1.2127 H         1 <0>         0.1229
     35 H3          3.9525    1.9387    0.7181 H         1 <0>         0.1188
     36 H4          1.7209   -1.6908    0.9082 H         1 <0>         0.1267
     37 H5         -0.3226   -0.4086    1.4014 H         1 <0>         0.1238
     38 H6          3.4653   -1.4129   -1.4272 H         1 <0>         0.0838
     39 H7          4.4585    0.0630   -1.5062 H         1 <0>         0.0713
     40 H8          5.6836   -1.9016   -2.4113 H         1 <0>         0.0772
     41 H9          6.4773   -1.2574   -0.9543 H         1 <0>         0.0414
     42 H10         5.3012   -3.9204    1.2326 H         1 <0>         0.0751
     43 H11         6.2567   -2.4214    1.1466 H         1 <0>         0.0451
     44 H12         4.0672   -2.0019    2.2207 H         1 <0>         0.0764
     45 H13         3.2335   -2.6362    0.7808 H         1 <0>         0.0880
     46 H14         6.6683   -3.9691   -2.1452 H         1 <0>         0.0892
     47 H15         7.4853   -3.6097   -0.6052 H         1 <0>         0.0593
     48 H16         7.1189   -6.0244   -0.7724 H         1 <0>         0.0697
     49 H17         6.0661   -5.3629    0.5012 H         1 <0>         0.0672
     50 H18         6.2627   -7.4421    0.5137 H         1 <0>         0.1369
     51 H19         5.5337   -9.7200    1.0944 H         1 <0>         0.1324
     52 H20         2.3412   -9.4181   -1.7301 H         1 <0>         0.1415
     53 H21         3.0640   -7.1363   -2.3031 H         1 <0>         0.1444
     54 H22         1.1766   -9.1247    4.3581 H         1 <0>         0.1372
     55 H23         0.1291  -10.6197    6.0019 H         1 <0>         0.1393
     56 H24         0.1420  -13.0542    5.6520 H         1 <0>         0.1430
     57 H25         1.2021  -14.0177    3.6557 H         1 <0>         0.1375
     58 H26         5.4696    0.8429    0.6109 H         1 <0>         0.3740
@<TRIPOS>BOND
     1    1    6 ar
     2    1    2 ar
     3    1   33 1
     4    2    3 ar
     5    2   34 1
     6    3    4 ar
     7    3   35 1
     8    4    5 ar
     9    4    7 1
    10    5    6 ar
    11    5   36 1
    12    6   37 1
    13    7   12 1
    14    7    8 1
    15    7   32 1
    16    8    9 1
    17    8   38 1
    18    8   39 1
    19    9   10 1
    20    9   40 1
    21    9   41 1
    22   10   11 1
    23   10   13 1
    24   11   12 1
    25   11   42 1
    26   11   43 1
    27   12   44 1
    28   12   45 1
    29   13   14 1
    30   13   46 1
    31   13   47 1
    32   14   15 1
    33   14   48 1
    34   14   49 1
    35   15   16 1
    36   16   21 ar
    37   16   17 ar
    38   17   18 ar
    39   17   50 1
    40   18   19 ar
    41   18   51 1
    42   19   20 ar
    43   19   22 1
    44   20   21 ar
    45   20   52 1
    46   21   53 1
    47   22   23 1
    48   23   31 1
    49   23   24 2
    50   24   25 1
    51   25   30 ar
    52   25   26 ar
    53   26   27 ar
    54   26   54 1
    55   27   28 ar
    56   27   55 1
    57   28   29 ar
    58   28   56 1
    59   29   30 ar
    60   29   57 1
    61   30   31 1
    62   32   58 1
@<TRIPOS>MOLECULE
CHEMBL480136
   59    63     0     0     0
SMALL
USER_CHARGES

@<TRIPOS>ATOM
      1 C1          0.6457    1.5439    1.2979 C.ar      1 <0>        -0.1058
      2 C2          1.8506    2.1960    1.1136 C.ar      1 <0>        -0.1101
      3 C3          2.9967    1.4691    0.8512 C.ar      1 <0>        -0.1070
      4 C4          2.9381    0.0902    0.7735 C.ar      1 <0>        -0.1290
      5 C5          1.7334   -0.5619    0.9586 C.ar      1 <0>        -0.1142
      6 C6          0.5870    0.1650    1.2197 C.ar      1 <0>        -0.1123
      7 C7          4.1875   -0.7021    0.4864 C.3       1 <0>         0.1748
      8 C8          4.3393   -0.8886   -1.0260 C.3       1 <0>        -0.1697
      9 C9          5.5652   -1.7605   -1.3063 C.3       1 <0>        -0.0023
     10 N1          5.3958   -3.0699   -0.6649 N.4       1 <0>        -0.3840
     11 C10         5.3215   -2.9050    0.7918 C.3       1 <0>        -0.0101
     12 C11         4.0863   -2.0772    1.1528 C.3       1 <0>        -0.1309
     13 C12         6.5385   -3.9297   -1.0012 C.3       1 <0>         0.0004
     14 C13         6.3042   -5.3327   -0.4377 C.3       1 <0>         0.0245
     15 O1          5.1796   -5.9263   -1.0897 O.3       1 <0>        -0.3265
     16 C14         4.8342   -7.1831   -0.7026 C.ar      1 <0>         0.0979
     17 C15         5.5600   -7.8278    0.2882 C.ar      1 <0>        -0.1767
     18 C16         5.2092   -9.1045    0.6814 C.ar      1 <0>        -0.1447
     19 C17         4.1309   -9.7420    0.0855 C.ar      1 <0>         0.0634
     20 C18         3.4050   -9.0973   -0.9054 C.ar      1 <0>        -0.0815
     21 C19         3.7525   -7.8184   -1.2945 C.ar      1 <0>        -0.1171
     22 O2          3.7857  -10.9991    0.4722 O.3       1 <0>        -0.1775
     23 C20         4.4377  -11.5407    1.5270 C.2       1 <0>         0.3107
     24 N2          5.3275  -10.9877    2.3165 N.2       1 <0>        -0.5521
     25 C21         5.9024  -11.6534    3.3418 C.ar      1 <0>         0.0912
     26 C22         6.8673  -11.1782    4.2599 C.ar      1 <0>        -0.0691
     27 C23         7.3517  -11.9918    5.2504 C.ar      1 <0>        -0.1008
     28 C24         6.9175  -13.3023    5.3893 C.ar      1 <0>        -0.0938
     29 C25         5.9746  -13.8001    4.5089 C.ar      1 <0>        -0.0566
     30 C26         5.4838  -12.9923    3.5137 C.ar      1 <0>        -0.1601
     31 S1          4.2999  -13.1892    2.2037 S.3       1 <0>         0.1093
     32 O3          5.3241   -0.0047    0.9999 O.3       1 <0>        -0.5492
     33 H1         -0.2490    2.1114    1.5074 H         1 <0>         0.1298
     34 H2          1.8963    3.2733    1.1744 H         1 <0>         0.1300
     35 H3          3.9379    1.9786    0.7065 H         1 <0>         0.1223
     36 H4          1.6876   -1.6392    0.8976 H         1 <0>         0.1231
     37 H5         -0.3543   -0.3445    1.3640 H         1 <0>         0.1292
     38 H6          3.4485   -1.3744   -1.4241 H         1 <0>         0.1004
     39 H7          4.4678    0.0837   -1.5016 H         1 <0>         0.1173
     40 H8          5.6763   -1.8952   -2.3822 H         1 <0>         0.1335
     41 H9          6.4554   -1.2738   -0.9081 H         1 <0>         0.1357
     42 H10         5.2528   -3.8846    1.2648 H         1 <0>         0.1303
     43 H11         6.2170   -2.3939    1.1453 H         1 <0>         0.1399
     44 H12         4.0339   -1.9544    2.2346 H         1 <0>         0.1227
     45 H13         3.1902   -2.5876    0.8000 H         1 <0>         0.1040
     46 H14         6.6441   -3.9863   -2.0846 H         1 <0>         0.1434
     47 H15         7.4475   -3.5116   -0.5688 H         1 <0>         0.1503
     48 H16         7.1890   -5.9457   -0.6095 H         1 <0>         0.1100
     49 H17         6.1103   -5.2666    0.6329 H         1 <0>         0.0870
     50 H18         6.3997   -7.3315    0.7519 H         1 <0>         0.1324
     51 H19         5.7746   -9.6065    1.4525 H         1 <0>         0.2019
     52 H20         2.5657   -9.5937   -1.3696 H         1 <0>         0.1489
     53 H21         3.1847   -7.3147   -2.0628 H         1 <0>         0.1446
     54 H22         7.2266  -10.1629    4.1793 H         1 <0>         0.1323
     55 H23         8.0884  -11.6043    5.9384 H         1 <0>         0.1383
     56 H24         7.3123  -13.9272    6.1768 H         1 <0>         0.1442
     57 H25         5.6262  -14.8180    4.6040 H         1 <0>         0.1393
     58 H26         5.4510    0.8750    0.6189 H         1 <0>         0.3903
     59 H27         4.5453   -3.4988   -0.9976 H         1 <0>         0.4276
@<TRIPOS>BOND
     1    1    6 ar
     2    1    2 ar
     3    1   33 1
     4    2    3 ar
     5    2   34 1
     6    3    4 ar
     7    3   35 1
     8    4    5 ar
     9    4    7 1
    10    5    6 ar
    11    5   36 1
    12    6   37 1
    13    7   12 1
    14    7    8 1
    15    7   32 1
    16    8    9 1
    17    8   38 1
    18    8   39 1
    19    9   10 1
    20    9   40 1
    21    9   41 1
    22   10   11 1
    23   10   13 1
    24   10   59 1
    25   11   12 1
    26   11   42 1
    27   11   43 1
    28   12   44 1
    29   12   45 1
    30   13   14 1
    31   13   46 1
    32   13   47 1
    33   14   15 1
    34   14   48 1
    35   14   49 1
    36   15   16 1
    37   16   21 ar
    38   16   17 ar
    39   17   18 ar
    40   17   50 1
    41   18   19 ar
    42   18   51 1
    43   19   20 ar
    44   19   22 1
    45   20   21 ar
    46   20   52 1
    47   21   53 1
    48   22   23 1
    49   23   31 1
    50   23   24 2
    51   24   25 1
    52   25   30 ar
    53   25   26 ar
    54   26   27 ar
    55   26   54 1
    56   27   28 ar
    57   27   55 1
    58   28   29 ar
    59   28   56 1
    60   29   30 ar
    61   29   57 1
    62   30   31 1
    63   32   58 1
@<TRIPOS>MOLECULE
CHEMBL480136__1
   58    62     0     0     0
SMALL
USER_CHARGES

@<TRIPOS>ATOM
      1 C1          0.5940    1.4675    1.3411 C.ar      1 <0>        -0.1205
      2 C2          1.7925    2.1327    1.1627 C.ar      1 <0>        -0.1166
      3 C3          2.9458    1.4193    0.8945 C.ar      1 <0>        -0.1142
      4 C4          2.9005    0.0406    0.8050 C.ar      1 <0>        -0.1084
      5 C5          1.7021   -0.6247    0.9843 C.ar      1 <0>        -0.1113
      6 C6          0.5487    0.0888    1.2511 C.ar      1 <0>        -0.1167
      7 C7          4.1576   -0.7371    0.5116 C.3       1 <0>         0.1752
      8 C8          4.3123   -0.9075   -1.0022 C.3       1 <0>        -0.1350
      9 C9          5.5571   -1.7495   -1.2912 C.3       1 <0>         0.0608
     10 N1          5.4235   -3.0610   -0.6441 N.3       1 <0>        -0.5308
     11 C10         5.3211   -2.9254    0.8145 C.3       1 <0>         0.0538
     12 C11         4.0693   -2.1184    1.1664 C.3       1 <0>        -0.0987
     13 C12         6.5362   -3.9461   -1.0137 C.3       1 <0>         0.0565
     14 C13         6.2395   -5.3671   -0.5305 C.3       1 <0>         0.0619
     15 O1          5.1017   -5.8793   -1.2269 O.3       1 <0>        -0.2940
     16 C14         4.7021   -7.1405   -0.9132 C.ar      1 <0>         0.1237
     17 C15         5.3885   -7.8663    0.0492 C.ar      1 <0>        -0.1884
     18 C16         4.9827   -9.1474    0.3680 C.ar      1 <0>        -0.1409
     19 C17         3.8885   -9.7083   -0.2744 C.ar      1 <0>         0.0355
     20 C18         3.2021   -8.9825   -1.2368 C.ar      1 <0>        -0.0789
     21 C19         3.6046   -7.6993   -1.5514 C.ar      1 <0>        -0.1294
     22 O2          3.4892  -10.9697    0.0391 O.3       1 <0>        -0.1796
     23 C20         4.1050  -11.5933    1.0701 C.2       1 <0>         0.3246
     24 N2          5.0048  -11.1196    1.8989 N.2       1 <0>        -0.5523
     25 C21         5.5391  -11.8622    2.8930 C.ar      1 <0>         0.0980
     26 C22         6.5091  -11.4762    3.8467 C.ar      1 <0>        -0.0703
     27 C23         6.9477  -12.3609    4.7969 C.ar      1 <0>        -0.1019
     28 C24         6.4608  -13.6587    4.8589 C.ar      1 <0>        -0.1009
     29 C25         5.5113  -14.0702    3.9418 C.ar      1 <0>        -0.0571
     30 C26         5.0662  -13.1908    2.9865 C.ar      1 <0>        -0.1627
     31 S1          3.8935  -13.2691    1.6541 S.3       1 <0>         0.0890
     32 O3          5.2870   -0.0333    1.0321 O.3       1 <0>        -0.5511
     33 H1         -0.3062    2.0246    1.5551 H         1 <0>         0.1225
     34 H2          1.8279    3.2099    1.2326 H         1 <0>         0.1229
     35 H3          3.8820    1.9391    0.7544 H         1 <0>         0.1188
     36 H4          1.6667   -1.7019    0.9141 H         1 <0>         0.1266
     37 H5         -0.3877   -0.4309    1.3908 H         1 <0>         0.1237
     38 H6          3.4320   -1.4095   -1.4037 H         1 <0>         0.0837
     39 H7          4.4186    0.0715   -1.4695 H         1 <0>         0.0712
     40 H8          5.6621   -1.8847   -2.3677 H         1 <0>         0.0770
     41 H9          6.4385   -1.2403   -0.9016 H         1 <0>         0.0411
     42 H10         5.2547   -3.9146    1.2674 H         1 <0>         0.0750
     43 H11         6.2036   -2.4107    1.1943 H         1 <0>         0.0448
     44 H12         4.0019   -2.0047    2.2484 H         1 <0>         0.0760
     45 H13         3.1852   -2.6395    0.7990 H         1 <0>         0.0878
     46 H14         6.6544   -3.9480   -2.0973 H         1 <0>         0.0884
     47 H15         7.4548   -3.5885   -0.5486 H         1 <0>         0.0579
     48 H16         7.1020   -6.0046   -0.7253 H         1 <0>         0.0668
     49 H17         6.0337   -5.3514    0.5398 H         1 <0>         0.0645
     50 H18         6.2405   -7.4296    0.5490 H         1 <0>         0.1310
     51 H19         5.5173   -9.7126    1.1170 H         1 <0>         0.1955
     52 H20         2.3505   -9.4193   -1.7372 H         1 <0>         0.1416
     53 H21         3.0675   -7.1325   -2.2976 H         1 <0>         0.1430
     54 H22         6.9090  -10.4732    3.8259 H         1 <0>         0.1336
     55 H23         7.6895  -12.0409    5.5135 H         1 <0>         0.1362
     56 H24         6.8200  -14.3406    5.6155 H         1 <0>         0.1409
     57 H25         5.1222  -15.0770    3.9770 H         1 <0>         0.1362
     58 H26         5.4055    0.8510    0.6591 H         1 <0>         0.3739
@<TRIPOS>BOND
     1    1    6 ar
     2    1    2 ar
     3    1   33 1
     4    2    3 ar
     5    2   34 1
     6    3    4 ar
     7    3   35 1
     8    4    5 ar
     9    4    7 1
    10    5    6 ar
    11    5   36 1
    12    6   37 1
    13    7   12 1
    14    7    8 1
    15    7   32 1
    16    8    9 1
    17    8   38 1
    18    8   39 1
    19    9   10 1
    20    9   40 1
    21    9   41 1
    22   10   11 1
    23   10   13 1
    24   11   12 1
    25   11   42 1
    26   11   43 1
    27   12   44 1
    28   12   45 1
    29   13   14 1
    30   13   46 1
    31   13   47 1
    32   14   15 1
    33   14   48 1
    34   14   49 1
    35   15   16 1
    36   16   21 ar
    37   16   17 ar
    38   17   18 ar
    39   17   50 1
    40   18   19 ar
    41   18   51 1
    42   19   20 ar
    43   19   22 1
    44   20   21 ar
    45   20   52 1
    46   21   53 1
    47   22   23 1
    48   23   31 1
    49   23   24 2
    50   24   25 1
    51   25   30 ar
    52   25   26 ar
    53   26   27 ar
    54   26   54 1
    55   27   28 ar
    56   27   55 1
    57   28   29 ar
    58   28   56 1
    59   29   30 ar
    60   29   57 1
    61   30   31 1
    62   32   58 1
@<TRIPOS>MOLECULE
CHEMBL480137
   52    55     0     0     0
SMALL
USER_CHARGES

@<TRIPOS>ATOM
      1 C1          0.0463   -0.2763   -4.2821 C.ar      1 <0>        -0.1026
      2 C2          1.0983   -0.2401   -5.1860 C.ar      1 <0>        -0.0921
      3 C3          2.3088   -0.8115   -4.8393 C.ar      1 <0>        -0.0638
      4 C4          2.4508   -1.4041   -3.6095 C.ar      1 <0>        -0.1377
      5 C5          1.4020   -1.4598   -2.6637 C.ar      1 <0>         0.0982
      6 C6          0.1789   -0.8658   -3.0522 C.ar      1 <0>        -0.0616
      7 N1          1.6969   -2.0770   -1.4988 N.2       1 <0>        -0.5089
      8 C7          2.8774   -2.5937   -1.2533 C.2       1 <0>         0.3336
      9 S1          3.7706   -2.2362   -2.7596 S.3       1 <0>        -0.0369
     10 O1          3.3093   -3.2340   -0.1422 O.3       1 <0>        -0.1852
     11 C8          4.5578   -3.7720   -0.1602 C.ar      1 <0>         0.0393
     12 C9          5.6683   -2.9528   -0.0185 C.ar      1 <0>        -0.0726
     13 C10         6.9366   -3.4994   -0.0368 C.ar      1 <0>        -0.1250
     14 C11         7.0999   -4.8675   -0.1968 C.ar      1 <0>         0.1323
     15 C12         5.9896   -5.6867   -0.3388 C.ar      1 <0>        -0.1899
     16 C13         4.7211   -5.1410   -0.3144 C.ar      1 <0>        -0.0589
     17 O2          8.3485   -5.4056   -0.2147 O.3       1 <0>        -0.3229
     18 C14         8.4424   -6.8215   -0.3831 C.3       1 <0>         0.0219
     19 C15         9.9143   -7.2392   -0.3780 C.3       1 <0>        -0.0009
     20 N2         10.5040   -6.9389    0.9335 N.4       1 <0>        -0.3870
     21 C16        11.9495   -7.1894    0.8872 C.3       1 <0>        -0.0056
     22 C17        12.5813   -6.8012    2.2258 C.3       1 <0>        -0.1296
     23 C18        11.9521   -7.6386    3.3429 C.3       1 <0>        -0.1235
     24 C19        10.4354   -7.4267    3.3339 C.3       1 <0>        -0.1394
     25 C20         9.8831   -7.7916    1.9543 C.3       1 <0>        -0.0105
     26 C21        12.5133   -7.2071    4.6733 C.2       1 <0>         0.5198
     27 O3         13.3358   -6.3174    4.7246 O.2       1 <0>        -0.5275
     28 N3         12.1011   -7.8100    5.8061 N.am      1 <0>        -0.8494
     29 H1         -0.8973    0.1743   -4.5523 H         1 <0>         0.1405
     30 H2          0.9729    0.2291   -6.1506 H         1 <0>         0.1439
     31 H3          3.1372   -0.7918   -5.5320 H         1 <0>         0.1365
     32 H4         -0.6598   -0.8764   -2.3718 H         1 <0>         0.1383
     33 H5          5.5411   -1.8875    0.1057 H         1 <0>         0.1497
     34 H6          7.8011   -2.8615    0.0731 H         1 <0>         0.1479
     35 H7          6.1169   -6.7518   -0.4641 H         1 <0>         0.1418
     36 H8          3.8564   -5.7794   -0.4199 H         1 <0>         0.1476
     37 H9          7.9204   -7.3200    0.4337 H         1 <0>         0.0895
     38 H10         7.9874   -7.1055   -1.3320 H         1 <0>         0.1134
     39 H11         9.9891   -8.3089   -0.5737 H         1 <0>         0.1521
     40 H12        10.4505   -6.6900   -1.1519 H         1 <0>         0.1455
     41 H13        12.1286   -8.2472    0.6946 H         1 <0>         0.1326
     42 H14        12.3954   -6.5951    0.0896 H         1 <0>         0.1380
     43 H15        13.6543   -6.9896    2.1900 H         1 <0>         0.1220
     44 H16        12.4031   -5.7435    2.4193 H         1 <0>         0.0989
     45 H17        12.1738   -8.6929    3.1772 H         1 <0>         0.1180
     46 H18         9.9746   -8.0621    4.0901 H         1 <0>         0.1179
     47 H19        10.2126   -6.3819    3.5504 H         1 <0>         0.0968
     48 H20         8.8035   -7.6420    1.9444 H         1 <0>         0.1333
     49 H21        10.1062   -8.8366    1.7389 H         1 <0>         0.1355
     50 H22        11.4432   -8.5216    5.7650 H         1 <0>         0.4031
     51 H23        12.4623   -7.5322    6.6624 H         1 <0>         0.4123
     52 H24        10.3397   -5.9697    1.1610 H         1 <0>         0.4312
@<TRIPOS>BOND
     1    1    6 ar
     2    1    2 ar
     3    1   29 1
     4    2    3 ar
     5    2   30 1
     6    3    4 ar
     7    3   31 1
     8    4    9 1
     9    4    5 ar
    10    5    6 ar
    11    5    7 1
    12    6   32 1
    13    7    8 2
    14    8    9 1
    15    8   10 1
    16   10   11 1
    17   11   16 ar
    18   11   12 ar
    19   12   13 ar
    20   12   33 1
    21   13   14 ar
    22   13   34 1
    23   14   15 ar
    24   14   17 1
    25   15   16 ar
    26   15   35 1
    27   16   36 1
    28   17   18 1
    29   18   19 1
    30   18   37 1
    31   18   38 1
    32   19   20 1
    33   19   39 1
    34   19   40 1
    35   20   25 1
    36   20   21 1
    37   20   52 1
    38   21   22 1
    39   21   41 1
    40   21   42 1
    41   22   23 1
    42   22   43 1
    43   22   44 1
    44   23   24 1
    45   23   26 1
    46   23   45 1
    47   24   25 1
    48   24   46 1
    49   24   47 1
    50   25   48 1
    51   25   49 1
    52   26   27 2
    53   26   28 am
    54   28   50 1
    55   28   51 1
@<TRIPOS>MOLECULE
CHEMBL480137__1
   51    54     0     0     0
SMALL
USER_CHARGES

@<TRIPOS>ATOM
      1 C1          0.6129    0.2342   -4.6960 C.ar      1 <0>        -0.1043
      2 C2          1.6708    0.1485   -5.5897 C.ar      1 <0>        -0.1011
      3 C3          2.8320   -0.4959   -5.2045 C.ar      1 <0>        -0.0608
      4 C4          2.9201   -1.0394   -3.9472 C.ar      1 <0>        -0.1453
      5 C5          1.8635   -0.9714   -3.0109 C.ar      1 <0>         0.1048
      6 C6          0.6919   -0.3054   -3.4389 C.ar      1 <0>        -0.0676
      7 N1          2.1027   -1.5540   -1.8157 N.2       1 <0>        -0.5216
      8 C7          3.2389   -2.1464   -1.5345 C.2       1 <0>         0.3452
      9 S1          4.1669   -1.9283   -3.0462 S.3       1 <0>        -0.0313
     10 O1          3.6132   -2.7649   -0.3906 O.3       1 <0>        -0.1816
     11 C8          4.8198   -3.3914   -0.3690 C.ar      1 <0>         0.0087
     12 C9          5.9843   -2.6494   -0.2363 C.ar      1 <0>        -0.0708
     13 C10         7.2099   -3.2859   -0.2144 C.ar      1 <0>        -0.1371
     14 C11         7.2763   -4.6669   -0.3252 C.ar      1 <0>         0.1576
     15 C12         6.1119   -5.4089   -0.4583 C.ar      1 <0>        -0.2015
     16 C13         4.8859   -4.7730   -0.4740 C.ar      1 <0>        -0.0562
     17 O2          8.4829   -5.2934   -0.3036 O.3       1 <0>        -0.2882
     18 C14         8.4767   -6.7175   -0.4224 C.3       1 <0>         0.0618
     19 C15         9.9143   -7.2392   -0.3780 C.3       1 <0>         0.0543
     20 N2         10.5040   -6.9389    0.9335 N.3       1 <0>        -0.5326
     21 C16        11.9707   -6.9748    0.8717 C.3       1 <0>         0.0574
     22 C17        12.5504   -6.5168    2.2119 C.3       1 <0>        -0.0976
     23 C18        12.0451   -7.4406    3.3235 C.3       1 <0>        -0.1099
     24 C19        10.5140   -7.4224    3.3349 C.3       1 <0>        -0.1070
     25 C20         9.9933   -7.8541    1.9621 C.3       1 <0>         0.0540
     26 C21        12.5644   -6.9590    4.6536 C.2       1 <0>         0.5213
     27 O3         13.2695   -5.9737    4.7086 O.2       1 <0>        -0.5389
     28 N3         12.2453   -7.6230    5.7822 N.am      1 <0>        -0.8569
     29 H1         -0.2918    0.7418   -4.9965 H         1 <0>         0.1367
     30 H2          1.5880    0.5803   -6.5762 H         1 <0>         0.1404
     31 H3          3.6642   -0.5713   -5.8887 H         1 <0>         0.1348
     32 H4         -0.1498   -0.2208   -2.7676 H         1 <0>         0.1355
     33 H5          5.9327   -1.5741   -0.1504 H         1 <0>         0.1423
     34 H6          8.1166   -2.7082   -0.1115 H         1 <0>         0.1458
     35 H7          6.1637   -6.4841   -0.5452 H         1 <0>         0.1403
     36 H8          3.9790   -5.3511   -0.5725 H         1 <0>         0.1400
     37 H9          7.9082   -7.1483    0.4019 H         1 <0>         0.0660
     38 H10         8.0162   -7.0012   -1.3687 H         1 <0>         0.0699
     39 H11         9.9146   -8.3174   -0.5382 H         1 <0>         0.0625
     40 H12        10.5006   -6.7556   -1.1593 H         1 <0>         0.0892
     41 H13        12.3006   -7.9923    0.6620 H         1 <0>         0.0352
     42 H14        12.3172   -6.3104    0.0800 H         1 <0>         0.0825
     43 H15        13.6389   -6.5584    2.1708 H         1 <0>         0.0758
     44 H16        12.2322   -5.4944    2.4157 H         1 <0>         0.0823
     45 H17        12.3959   -8.4563    3.1406 H         1 <0>         0.0951
     46 H18        10.1475   -8.1110    4.0962 H         1 <0>         0.0722
     47 H19        10.1638   -6.4142    3.5563 H         1 <0>         0.0798
     48 H20         8.9036   -7.8284    1.9625 H         1 <0>         0.0783
     49 H21        10.3325   -8.8675    1.7473 H         1 <0>         0.0379
     50 H22        11.6813   -8.4110    5.7382 H         1 <0>         0.4007
     51 H23        12.5795   -7.3130    6.6384 H         1 <0>         0.4020
@<TRIPOS>BOND
     1    1    6 ar
     2    1    2 ar
     3    1   29 1
     4    2    3 ar
     5    2   30 1
     6    3    4 ar
     7    3   31 1
     8    4    9 1
     9    4    5 ar
    10    5    6 ar
    11    5    7 1
    12    6   32 1
    13    7    8 2
    14    8    9 1
    15    8   10 1
    16   10   11 1
    17   11   16 ar
    18   11   12 ar
    19   12   13 ar
    20   12   33 1
    21   13   14 ar
    22   13   34 1
    23   14   15 ar
    24   14   17 1
    25   15   16 ar
    26   15   35 1
    27   16   36 1
    28   17   18 1
    29   18   19 1
    30   18   37 1
    31   18   38 1
    32   19   20 1
    33   19   39 1
    34   19   40 1
    35   20   25 1
    36   20   21 1
    37   21   22 1
    38   21   41 1
    39   21   42 1
    40   22   23 1
    41   22   43 1
    42   22   44 1
    43   23   24 1
    44   23   26 1
    45   23   45 1
    46   24   25 1
    47   24   46 1
    48   24   47 1
    49   25   48 1
    50   25   49 1
    51   26   27 2
    52   26   28 am
    53   28   50 1
    54   28   51 1
@<TRIPOS>MOLECULE
CHEMBL119612
   57    59     0     0     0
SMALL
USER_CHARGES

@<TRIPOS>ATOM
      1 C1         -1.4494   -0.7988   -0.0702 C.3       1 <0>        -0.0541
      2 N1         -1.5179   -2.2198    0.2961 N.4       1 <0>        -0.3860
      3 C2         -0.6441   -2.4706    1.4501 C.3       1 <0>        -0.0057
      4 C3         -1.1770   -1.7126    2.6676 C.3       1 <0>        -0.1488
      5 C4         -0.2669   -1.9738    3.8694 C.3       1 <0>         0.0629
      6 O1         -0.7645   -1.2658    5.0066 O.3       1 <0>        -0.3127
      7 C5         -0.0660   -1.3917    6.1664 C.ar      1 <0>         0.0928
      8 C6          1.0774   -2.1759    6.2056 C.ar      1 <0>        -0.1675
      9 C7          1.7868   -2.3042    7.3838 C.ar      1 <0>        -0.1535
     10 C8          1.3560   -1.6482    8.5277 C.ar      1 <0>         0.0941
     11 C9          0.2127   -0.8635    8.4882 C.ar      1 <0>        -0.1042
     12 C10        -0.4936   -0.7312    7.3087 C.ar      1 <0>        -0.1082
     13 O2          2.0540   -1.7747    9.6876 O.3       1 <0>        -0.2571
     14 C11         3.1718   -2.5466    9.6783 C.ar      1 <0>         0.0795
     15 C12         4.4037   -1.9788    9.3810 C.ar      1 <0>        -0.1202
     16 C13         5.5400   -2.7598    9.3713 C.ar      1 <0>        -0.0985
     17 C14         5.4514   -4.1205    9.6602 C.ar      1 <0>        -0.0366
     18 C15         4.2136   -4.6878    9.9583 C.ar      1 <0>        -0.0985
     19 C16         3.0813   -3.9009    9.9718 C.ar      1 <0>        -0.1201
     20 C17         6.6721   -4.9635    9.6501 C.ar      1 <0>        -0.0532
     21 C18         7.9111   -4.3966    9.3574 C.ar      1 <0>        -0.1084
     22 C19         9.0435   -5.1854    9.3499 C.ar      1 <0>        -0.1171
     23 C20         8.9503   -6.5365    9.6316 C.ar      1 <0>        -0.1140
     24 C21         7.7231   -7.1045    9.9228 C.ar      1 <0>        -0.1170
     25 C22         6.5850   -6.3240    9.9388 C.ar      1 <0>        -0.1083
     26 C23        -1.0766   -3.0401   -0.8397 C.3       1 <0>         0.0142
     27 C24        -2.0588   -2.8737   -2.0010 C.3       1 <0>        -0.2158
     28 C25        -1.6061   -3.7153   -3.1663 C.2       1 <0>         0.4968
     29 O3         -0.5919   -4.3860   -3.0763 O.co2     1 <0>        -0.6870
     30 O4         -2.2540   -3.7255   -4.1991 O.co2     1 <0>        -0.6716
     31 H1         -0.4228   -0.5393   -0.3287 H         1 <0>         0.1203
     32 H2         -2.0977   -0.6127   -0.9264 H         1 <0>         0.1265
     33 H3         -1.7768   -0.1901    0.7726 H         1 <0>         0.1180
     34 H4         -0.6258   -3.5388    1.6665 H         1 <0>         0.1321
     35 H5          0.3655   -2.1287    1.2224 H         1 <0>         0.1307
     36 H6         -1.1953   -0.6444    2.4511 H         1 <0>         0.0978
     37 H7         -2.1866   -2.0545    2.8952 H         1 <0>         0.0972
     38 H8         -0.2486   -3.0420    4.0859 H         1 <0>         0.0719
     39 H9          0.7427   -1.6319    3.6418 H         1 <0>         0.0714
     40 H10         1.4128   -2.6866    5.3151 H         1 <0>         0.1306
     41 H11         2.6767   -2.9154    7.4145 H         1 <0>         0.1328
     42 H12        -0.1230   -0.3530    9.3788 H         1 <0>         0.1432
     43 H13        -1.3813   -0.1168    7.2768 H         1 <0>         0.1414
     44 H14         4.4717   -0.9245    9.1568 H         1 <0>         0.1343
     45 H15         6.4978   -2.3177    9.1396 H         1 <0>         0.1349
     46 H16         4.1420   -5.7418   10.1826 H         1 <0>         0.1350
     47 H17         2.1226   -4.3390   10.2070 H         1 <0>         0.1344
     48 H18         7.9849   -3.3420    9.1366 H         1 <0>         0.1259
     49 H19        10.0042   -4.7471    9.1232 H         1 <0>         0.1263
     50 H20         9.8389   -7.1502    9.6239 H         1 <0>         0.1250
     51 H21         7.6561   -8.1599   10.1417 H         1 <0>         0.1264
     52 H22         5.6279   -6.7677   10.1703 H         1 <0>         0.1259
     53 H23        -0.0836   -2.7200   -1.1550 H         1 <0>         0.1290
     54 H24        -1.0426   -4.0875   -0.5399 H         1 <0>         0.1298
     55 H25        -3.0518   -3.1939   -1.6857 H         1 <0>         0.0807
     56 H26        -2.0928   -1.8263   -2.3008 H         1 <0>         0.0818
     57 H27        -2.4683   -2.4599    0.5354 H         1 <0>         0.4205
@<TRIPOS>BOND
     1    1    2 1
     2    1   31 1
     3    1   32 1
     4    1   33 1
     5    2    3 1
     6    2   26 1
     7    2   57 1
     8    3    4 1
     9    3   34 1
    10    3   35 1
    11    4    5 1
    12    4   36 1
    13    4   37 1
    14    5    6 1
    15    5   38 1
    16    5   39 1
    17    6    7 1
    18    7   12 ar
    19    7    8 ar
    20    8    9 ar
    21    8   40 1
    22    9   10 ar
    23    9   41 1
    24   10   11 ar
    25   10   13 1
    26   11   12 ar
    27   11   42 1
    28   12   43 1
    29   13   14 1
    30   14   19 ar
    31   14   15 ar
    32   15   16 ar
    33   15   44 1
    34   16   17 ar
    35   16   45 1
    36   17   18 ar
    37   17   20 1
    38   18   19 ar
    39   18   46 1
    40   19   47 1
    41   20   25 ar
    42   20   21 ar
    43   21   22 ar
    44   21   48 1
    45   22   23 ar
    46   22   49 1
    47   23   24 ar
    48   23   50 1
    49   24   25 ar
    50   24   51 1
    51   25   52 1
    52   26   27 1
    53   26   53 1
    54   26   54 1
    55   27   28 1
    56   27   55 1
    57   27   56 1
    58   28   29 2
    59   28   30 1
@<TRIPOS>MOLECULE
CHEMBL471954
   60    64     0     0     0
SMALL
USER_CHARGES

@<TRIPOS>ATOM
      1 C1          1.7158   -1.5660    3.5535 C.ar      1 <0>        -0.0919
      2 C2          2.8688   -0.8028    3.5601 C.ar      1 <0>        -0.1229
      3 C3          3.4763   -0.4528    2.3684 C.ar      1 <0>        -0.1173
      4 C4          2.9310   -0.8655    1.1660 C.ar      1 <0>         0.0737
      5 C5          1.7725   -1.6325    1.1578 C.ar      1 <0>         0.0879
      6 C6          1.1668   -1.9816    2.3556 C.ar      1 <0>        -0.1687
      7 O1          1.2336   -2.0395   -0.0219 O.3       1 <0>        -0.2481
      8 C7          0.0947   -2.7812    0.0187 C.ar      1 <0>         0.0275
      9 C8         -1.1425   -2.1540   -0.0082 C.ar      1 <0>        -0.0707
     10 C9         -2.2996   -2.9066    0.0330 C.ar      1 <0>        -0.1733
     11 C10        -2.2246   -4.2916    0.1015 C.ar      1 <0>         0.2158
     12 C11        -0.9859   -4.9187    0.1284 C.ar      1 <0>        -0.1862
     13 C12         0.1704   -4.1651    0.0814 C.ar      1 <0>        -0.0731
     14 N1         -3.3966   -5.0548    0.1438 N.pl3     1 <0>        -0.7413
     15 C13        -3.3171   -6.5159    0.2160 C.3       1 <0>         0.1427
     16 C14        -3.1626   -7.0880   -1.1961 C.3       1 <0>        -0.1625
     17 C15        -3.2294   -8.6218   -1.1216 C.3       1 <0>         0.0353
     18 H1         -2.9912   -9.0900   -2.0767 H         1 <0>         0.1502
     19 C16        -2.2797   -9.0822    0.0082 C.3       1 <0>        -0.1408
     20 C17        -3.1472   -9.0677    1.2840 C.3       1 <0>        -0.1420
     21 C18        -4.5422   -8.6000    0.8092 C.3       1 <0>         0.0414
     22 H2         -5.3479   -9.0592    1.3819 H         1 <0>         0.1572
     23 C19        -4.5941   -7.0643    0.8591 C.3       1 <0>        -0.1519
     24 N2         -4.5909   -8.9809   -0.6429 N.4       1 <0>        -0.3959
     25 C20        -4.8276  -10.4231   -0.7912 C.3       1 <0>         0.0559
     26 C21        -6.2522  -10.7396   -0.4151 C.ar      1 <0>        -0.1781
     27 C22        -6.5651  -11.0514    0.8963 C.ar      1 <0>        -0.1148
     28 C23        -7.8666  -11.3425    1.2477 C.ar      1 <0>        -0.0835
     29 C24        -8.8703  -11.3217    0.2760 C.ar      1 <0>        -0.0906
     30 C25        -8.5470  -11.0056   -1.0460 C.ar      1 <0>        -0.0834
     31 C26        -7.2420  -10.7115   -1.3818 C.ar      1 <0>        -0.1101
     32 C27       -10.2649  -11.6324    0.6440 C.2       1 <0>         0.5092
     33 O2        -10.5446  -11.9091    1.8019 O.co2     1 <0>        -0.6725
     34 O3        -11.1411  -11.6133   -0.2089 O.co2     1 <0>        -0.6721
     35 F1          3.5238   -0.5230    0.0013 F         1 <0>        -0.1305
     36 H3          1.2462   -1.8415    4.4862 H         1 <0>         0.1335
     37 H4          3.2954   -0.4791    4.4979 H         1 <0>         0.1371
     38 H5          4.3767    0.1434    2.3763 H         1 <0>         0.1451
     39 H6          0.2664   -2.5780    2.3520 H         1 <0>         0.1363
     40 H7         -1.2006   -1.0769   -0.0611 H         1 <0>         0.1344
     41 H8         -3.2626   -2.4182    0.0124 H         1 <0>         0.1318
     42 H9         -0.9268   -5.9958    0.1817 H         1 <0>         0.1261
     43 H10         1.1338   -4.6529    0.0975 H         1 <0>         0.1326
     44 H11        -4.2617   -4.6165    0.1252 H         1 <0>         0.4063
     45 H12        -2.4555   -6.8027    0.8188 H         1 <0>         0.1009
     46 H13        -3.9682   -6.7178   -1.8301 H         1 <0>         0.0920
     47 H14        -2.2010   -6.7842   -1.6099 H         1 <0>         0.1131
     48 H15        -1.9142  -10.0897   -0.1905 H         1 <0>         0.1006
     49 H16        -1.4454   -8.3881    0.1088 H         1 <0>         0.1086
     50 H17        -3.2081  -10.0680    1.7127 H         1 <0>         0.1020
     51 H18        -2.7394   -8.3663    2.0120 H         1 <0>         0.1116
     52 H19        -4.6455   -6.7438    1.8996 H         1 <0>         0.1170
     53 H20        -5.4641   -6.6932    0.3174 H         1 <0>         0.0965
     54 H21        -4.6515  -10.7157   -1.8263 H         1 <0>         0.1289
     55 H22        -4.1490  -10.9718   -0.1381 H         1 <0>         0.1289
     56 H23        -5.7882  -11.0671    1.6464 H         1 <0>         0.1204
     57 H24        -8.1093  -11.5864    2.2714 H         1 <0>         0.1382
     58 H25        -9.3178  -10.9875   -1.8023 H         1 <0>         0.1382
     59 H26        -6.9914  -10.4627   -2.4024 H         1 <0>         0.1211
     60 H27        -5.2927   -8.4512   -1.1378 H         1 <0>         0.4244
@<TRIPOS>BOND
     1    1    6 ar
     2    1    2 ar
     3    1   36 1
     4    2    3 ar
     5    2   37 1
     6    3    4 ar
     7    3   38 1
     8    4    5 ar
     9    4   35 1
    10    5    6 ar
    11    5    7 1
    12    6   39 1
    13    7    8 1
    14    8   13 ar
    15    8    9 ar
    16    9   10 ar
    17    9   40 1
    18   10   11 ar
    19   10   41 1
    20   11   12 ar
    21   11   14 1
    22   12   13 ar
    23   12   42 1
    24   13   43 1
    25   14   15 1
    26   14   44 1
    27   15   23 1
    28   15   16 1
    29   15   45 1
    30   16   17 1
    31   16   46 1
    32   16   47 1
    33   17   18 1
    34   17   24 1
    35   17   19 1
    36   19   20 1
    37   19   48 1
    38   19   49 1
    39   20   21 1
    40   20   50 1
    41   20   51 1
    42   21   22 1
    43   21   23 1
    44   21   24 1
    45   23   52 1
    46   23   53 1
    47   24   25 1
    48   24   60 1
    49   25   26 1
    50   25   54 1
    51   25   55 1
    52   26   31 ar
    53   26   27 ar
    54   27   28 ar
    55   27   56 1
    56   28   29 ar
    57   28   57 1
    58   29   30 ar
    59   29   32 1
    60   30   31 ar
    61   30   58 1
    62   31   59 1
    63   32   33 2
    64   32   34 1
@<TRIPOS>MOLECULE
CHEMBL480893
   62    66     0     0     0
SMALL
USER_CHARGES

@<TRIPOS>ATOM
      1 C1          0.6110   -1.8994    0.2412 C.ar      1 <0>        -0.1136
      2 C2          1.8944   -1.4053    0.3456 C.ar      1 <0>        -0.0843
      3 C3          2.9840   -2.2394    0.0823 C.ar      1 <0>        -0.0892
      4 C4          2.7643   -3.5694   -0.2851 C.ar      1 <0>        -0.0844
      5 C5          1.4753   -4.0497   -0.3854 C.ar      1 <0>        -0.1085
      6 C6          0.4010   -3.2178   -0.1232 C.ar      1 <0>        -0.1828
      7 C7         -1.0044   -3.7502   -0.2347 C.3       1 <0>         0.0520
      8 N1         -1.4972   -3.5490   -1.6038 N.4       1 <0>        -0.3824
      9 C8         -1.5947   -2.1108   -1.8806 C.3       1 <0>        -0.0082
     10 C9         -2.0301   -1.8952   -3.3317 C.3       1 <0>        -0.1531
     11 C10        -3.3953   -2.5529   -3.5524 C.3       1 <0>         0.1468
     12 C11        -3.3003   -4.0377   -3.1894 C.3       1 <0>        -0.1661
     13 C12        -2.8179   -4.1739   -1.7437 C.3       1 <0>        -0.0039
     14 N2         -3.7834   -2.4162   -4.9584 N.pl3     1 <0>        -0.7444
     15 C13        -5.1357   -2.4435   -5.3167 C.ar      1 <0>         0.1794
     16 C14        -6.1104   -2.5945   -4.3392 C.ar      1 <0>        -0.1594
     17 C15        -7.4449   -2.6209   -4.6936 C.ar      1 <0>        -0.1456
     18 C16        -7.8118   -2.4966   -6.0257 C.ar      1 <0>         0.0755
     19 C17        -6.8385   -2.3462   -7.0029 C.ar      1 <0>        -0.0926
     20 C18        -5.5039   -2.3139   -6.6494 C.ar      1 <0>        -0.1479
     21 O1         -9.1259   -2.5227   -6.3739 O.3       1 <0>        -0.2602
     22 C19       -10.0451   -2.6636   -5.3841 C.ar      1 <0>         0.1060
     23 C20       -10.5696   -1.5384   -4.7606 C.ar      1 <0>        -0.1269
     24 C21       -11.5021   -1.6771   -3.7555 C.ar      1 <0>        -0.0560
     25 C22       -11.9200   -2.9509   -3.3643 C.ar      1 <0>        -0.0161
     26 C23       -11.3908   -4.0794   -3.9939 C.ar      1 <0>        -0.0751
     27 C24       -10.4625   -3.9322   -5.0017 C.ar      1 <0>        -0.1272
     28 C25       -12.9192   -3.1041   -2.2869 C.2       1 <0>         0.2257
     29 N3        -13.4908   -2.1242   -1.6265 N.2       1 <0>        -0.4679
     30 C26       -14.3393   -2.6494   -0.7291 C.2       1 <0>        -0.0378
     31 C27       -14.2846   -3.9883   -0.8444 C.2       1 <0>        -0.0655
     32 O2        -13.4001   -4.2703   -1.8221 O.3       1 <0>        -0.1970
     33 C28         4.3599   -1.7181    0.1914 C.2       1 <0>         0.5089
     34 O3          4.5488   -0.5534    0.5128 O.co2     1 <0>        -0.6721
     35 O4          5.3114   -2.4507   -0.0397 O.co2     1 <0>        -0.6719
     36 H1         -0.2321   -1.2571    0.4488 H         1 <0>         0.1220
     37 H2          2.0568   -0.3761    0.6298 H         1 <0>         0.1387
     38 H3          3.6018   -4.2197   -0.4904 H         1 <0>         0.1386
     39 H4          1.3040   -5.0774   -0.6697 H         1 <0>         0.1220
     40 H5         -1.0094   -4.8146    0.0005 H         1 <0>         0.1319
     41 H6         -1.6502   -3.2204    0.4655 H         1 <0>         0.1301
     42 H7         -2.3281   -1.6613   -1.2112 H         1 <0>         0.1288
     43 H8         -0.6231   -1.6436   -1.7200 H         1 <0>         0.1420
     44 H9         -2.1036   -0.8268   -3.5347 H         1 <0>         0.1169
     45 H10        -1.2972   -2.3441   -4.0021 H         1 <0>         0.0928
     46 H11        -4.1393   -2.0697   -2.9190 H         1 <0>         0.0934
     47 H12        -4.2819   -4.5006   -3.2908 H         1 <0>         0.1117
     48 H13        -2.5938   -4.5310   -3.8569 H         1 <0>         0.0911
     49 H14        -2.7494   -5.2297   -1.4819 H         1 <0>         0.1312
     50 H15        -3.5253   -3.6804   -1.0771 H         1 <0>         0.1277
     51 H16        -3.1029   -2.3066   -5.6409 H         1 <0>         0.4048
     52 H17        -5.8250   -2.6916   -3.3022 H         1 <0>         0.1218
     53 H18        -8.2031   -2.7387   -3.9335 H         1 <0>         0.1283
     54 H19        -7.1249   -2.2499   -8.0398 H         1 <0>         0.1363
     55 H20        -4.7466   -2.1923   -7.4097 H         1 <0>         0.1317
     56 H21       -10.2459   -0.5536   -5.0637 H         1 <0>         0.1424
     57 H22       -11.9089   -0.8020   -3.2708 H         1 <0>         0.1476
     58 H23       -11.7113   -5.0662   -3.6938 H         1 <0>         0.1400
     59 H24       -10.0560   -4.8044   -5.4920 H         1 <0>         0.1406
     60 H25       -14.9562   -2.0954   -0.0370 H         1 <0>         0.1899
     61 H26       -14.8474   -4.7044   -0.2641 H         1 <0>         0.2211
     62 H27        -0.8551   -3.9723   -2.2569 H         1 <0>         0.4225
@<TRIPOS>BOND
     1    1    6 ar
     2    1    2 ar
     3    1   36 1
     4    2    3 ar
     5    2   37 1
     6    3    4 ar
     7    3   33 1
     8    4    5 ar
     9    4   38 1
    10    5    6 ar
    11    5   39 1
    12    6    7 1
    13    7    8 1
    14    7   40 1
    15    7   41 1
    16    8   13 1
    17    8    9 1
    18    8   62 1
    19    9   10 1
    20    9   42 1
    21    9   43 1
    22   10   11 1
    23   10   44 1
    24   10   45 1
    25   11   12 1
    26   11   14 1
    27   11   46 1
    28   12   13 1
    29   12   47 1
    30   12   48 1
    31   13   49 1
    32   13   50 1
    33   14   15 1
    34   14   51 1
    35   15   20 ar
    36   15   16 ar
    37   16   17 ar
    38   16   52 1
    39   17   18 ar
    40   17   53 1
    41   18   19 ar
    42   18   21 1
    43   19   20 ar
    44   19   54 1
    45   20   55 1
    46   21   22 1
    47   22   27 ar
    48   22   23 ar
    49   23   24 ar
    50   23   56 1
    51   24   25 ar
    52   24   57 1
    53   25   26 ar
    54   25   28 1
    55   26   27 ar
    56   26   58 1
    57   27   59 1
    58   28   32 1
    59   28   29 2
    60   29   30 1
    61   30   31 2
    62   30   60 1
    63   31   32 1
    64   31   61 1
    65   33   34 2
    66   33   35 1
@<TRIPOS>MOLECULE
CHEMBL354233
   42    44     0     0     0
SMALL
USER_CHARGES

@<TRIPOS>ATOM
      1 C1         -0.0167    1.3784    0.0096 C.ar      1 <0>        -0.0722
      2 C2          1.1695    2.0865    0.0021 C.ar      1 <0>        -0.1387
      3 C3          2.3802    1.4093   -0.0131 C.ar      1 <0>         0.1053
      4 C4          2.3963    0.0221   -0.0206 C.ar      1 <0>        -0.1984
      5 C5          1.2074   -0.6814   -0.0130 C.ar      1 <0>        -0.0732
      6 C6          0.0021   -0.0041    0.0020 C.ar      1 <0>        -0.0912
      7 C7         -1.2934   -0.7740    0.0107 C.3       1 <0>        -0.0275
      8 C8         -1.7392   -1.0230   -1.4071 C.2       1 <0>        -0.1182
      9 C9         -2.5510   -0.1125   -2.0573 C.2       1 <0>        -0.1564
     10 C10        -2.9341   -0.3668   -3.3324 C.2       1 <0>        -0.1669
     11 S1         -2.1393   -1.9332   -3.6515 S.3       1 <0>         0.0412
     12 C11        -1.3457   -2.1404   -2.0657 C.2       1 <0>        -0.1738
     13 O1          3.5484    2.1036   -0.0209 O.3       1 <0>        -0.3260
     14 C12         4.7565    1.3405   -0.0365 C.3       1 <0>         0.0284
     15 C13         5.9580    2.2878   -0.0434 C.3       1 <0>         0.0012
     16 N1          5.9923    3.0443    1.2153 N.4       1 <0>        -0.3910
     17 C14         4.8165    3.9374    1.2913 C.3       1 <0>        -0.0011
     18 C15         5.3362    5.2166    1.9935 C.3       1 <0>        -0.1458
     19 C16         6.7651    5.3403    1.4022 C.3       1 <0>        -0.1420
     20 C17         7.2129    3.8699    1.2649 C.3       1 <0>        -0.0135
     21 H1         -0.9594    1.9052    0.0259 H         1 <0>         0.1338
     22 H2          1.1543    3.1664    0.0076 H         1 <0>         0.1317
     23 H3          3.3375   -0.5074   -0.0328 H         1 <0>         0.1265
     24 H4          1.2194   -1.7613   -0.0189 H         1 <0>         0.1291
     25 H5         -1.1460   -1.7274    0.5180 H         1 <0>         0.0846
     26 H6         -2.0553   -0.1973    0.5352 H         1 <0>         0.0850
     27 H7         -2.8754    0.7878   -1.5567 H         1 <0>         0.1329
     28 H8         -3.5584    0.2246   -3.9858 H         1 <0>         0.1871
     29 H9         -0.7163   -2.9473   -1.7205 H         1 <0>         0.1831
     30 H10         4.7979    0.7076    0.8500 H         1 <0>         0.0851
     31 H11         4.7806    0.7165   -0.9299 H         1 <0>         0.1082
     32 H12         6.8762    1.7093   -0.1448 H         1 <0>         0.1488
     33 H13         5.8702    2.9798   -0.8810 H         1 <0>         0.1402
     34 H14         4.4545    4.1741    0.2908 H         1 <0>         0.1374
     35 H15         4.0261    3.4746    1.8822 H         1 <0>         0.1341
     36 H16         4.7279    6.0816    1.7291 H         1 <0>         0.1161
     37 H17         5.3713    5.0818    3.0746 H         1 <0>         0.0969
     38 H18         6.7380    5.8275    0.4275 H         1 <0>         0.0985
     39 H19         7.4198    5.8803    2.0861 H         1 <0>         0.1124
     40 H20         7.8187    3.5849    2.1251 H         1 <0>         0.1325
     41 H21         7.7854    3.7409    0.3463 H         1 <0>         0.1316
     42 H22         5.9824    2.4058    1.9965 H         1 <0>         0.4244
@<TRIPOS>BOND
     1    1    6 ar
     2    1    2 ar
     3    1   21 1
     4    2    3 ar
     5    2   22 1
     6    3    4 ar
     7    3   13 1
     8    4    5 ar
     9    4   23 1
    10    5    6 ar
    11    5   24 1
    12    6    7 1
    13    7    8 1
    14    7   25 1
    15    7   26 1
    16    8   12 2
    17    8    9 1
    18    9   10 2
    19    9   27 1
    20   10   11 1
    21   10   28 1
    22   11   12 1
    23   12   29 1
    24   13   14 1
    25   14   15 1
    26   14   30 1
    27   14   31 1
    28   15   16 1
    29   15   32 1
    30   15   33 1
    31   16   20 1
    32   16   17 1
    33   16   42 1
    34   17   18 1
    35   17   34 1
    36   17   35 1
    37   18   19 1
    38   18   36 1
    39   18   37 1
    40   19   20 1
    41   19   38 1
    42   19   39 1
    43   20   40 1
    44   20   41 1
@<TRIPOS>MOLECULE
CHEMBL14789
   43    46     0     0     0
SMALL
USER_CHARGES

@<TRIPOS>ATOM
      1 C1         -0.0167    1.3781    0.0096 C.ar      1 <0>        -0.1237
      2 C2          1.1709    2.0855    0.0021 C.ar      1 <0>        -0.1175
      3 C3          2.3773    1.4107   -0.0130 C.ar      1 <0>        -0.1151
      4 C4          2.3960    0.0285   -0.0201 C.ar      1 <0>        -0.0776
      5 C5          1.2084   -0.6789   -0.0117 C.ar      1 <0>        -0.1158
      6 C6          0.0021   -0.0041    0.0020 C.ar      1 <0>        -0.1178
      7 C7          3.7112   -0.7071   -0.0376 C.3       1 <0>        -0.0399
      8 C8          4.1644   -0.9594    1.3773 C.ar      1 <0>        -0.1076
      9 C9          4.9522   -0.0267    2.0264 C.ar      1 <0>        -0.0733
     10 C10         5.3694   -0.2559    3.3232 C.ar      1 <0>        -0.1434
     11 C11         4.9969   -1.4228    3.9745 C.ar      1 <0>         0.1235
     12 C12         4.2060   -2.3568    3.3213 C.ar      1 <0>        -0.2028
     13 C13         3.7871   -2.1206    2.0262 C.ar      1 <0>        -0.0728
     14 O1          5.4064   -1.6507    5.2502 O.3       1 <0>        -0.3103
     15 C14         4.9849   -2.8733    5.8582 C.3       1 <0>         0.0436
     16 C15         5.5391   -2.9523    7.2821 C.3       1 <0>         0.1115
     17 N1          5.1069   -4.2057    7.9054 N.pl3     1 <0>        -0.4717
     18 C16         4.0224   -4.3771    8.6957 C.2       1 <0>         0.3095
     19 N2          3.9358   -5.6205    9.0782 N.2       1 <0>        -0.4852
     20 C17         4.9567   -6.3291    8.5604 C.ar      1 <0>         0.2962
     21 C18         5.7262   -5.4322    7.7914 C.ar      1 <0>        -0.0767
     22 C19         6.8486   -5.9124    7.1358 C.ar      1 <0>         0.1912
     23 N3          7.1533   -7.1957    7.2547 N.ar      1 <0>        -0.5061
     24 C20         6.4106   -8.0117    7.9804 C.ar      1 <0>         0.2998
     25 N4          5.3407   -7.6041    8.6279 N.ar      1 <0>        -0.4792
     26 H1         -0.9591    1.9053    0.0259 H         1 <0>         0.1213
     27 H2          1.1563    3.1654    0.0076 H         1 <0>         0.1221
     28 H3          3.3051    1.9634   -0.0196 H         1 <0>         0.1208
     29 H4          1.2231   -1.7588   -0.0176 H         1 <0>         0.1197
     30 H5         -0.9258   -0.5567    0.0082 H         1 <0>         0.1216
     31 H6          3.5884   -1.6586   -0.5549 H         1 <0>         0.0824
     32 H7          4.4573   -0.1052   -0.5563 H         1 <0>         0.0836
     33 H8          5.2420    0.8815    1.5189 H         1 <0>         0.1306
     34 H9          5.9853    0.4726    3.8295 H         1 <0>         0.1329
     35 H10         3.9147   -3.2660    3.8262 H         1 <0>         0.1251
     36 H11         3.1678   -2.8454    1.5188 H         1 <0>         0.1250
     37 H12         3.8958   -2.9068    5.8898 H         1 <0>         0.0727
     38 H13         5.3576   -3.7160    5.2759 H         1 <0>         0.0699
     39 H14         6.6281   -2.9189    7.2505 H         1 <0>         0.1088
     40 H15         5.1664   -2.1096    7.8643 H         1 <0>         0.1181
     41 H16         3.3284   -3.5965    8.9701 H         1 <0>         0.2309
     42 H17         7.4624   -5.2534    6.5395 H         1 <0>         0.1681
     43 H18         6.6958   -9.0511    8.0496 H         1 <0>         0.2077
@<TRIPOS>BOND
     1    1    6 ar
     2    1    2 ar
     3    1   26 1
     4    2    3 ar
     5    2   27 1
     6    3    4 ar
     7    3   28 1
     8    4    5 ar
     9    4    7 1
    10    5    6 ar
    11    5   29 1
    12    6   30 1
    13    7    8 1
    14    7   31 1
    15    7   32 1
    16    8   13 ar
    17    8    9 ar
    18    9   10 ar
    19    9   33 1
    20   10   11 ar
    21   10   34 1
    22   11   12 ar
    23   11   14 1
    24   12   13 ar
    25   12   35 1
    26   13   36 1
    27   14   15 1
    28   15   16 1
    29   15   37 1
    30   15   38 1
    31   16   17 1
    32   16   39 1
    33   16   40 1
    34   17   21 1
    35   17   18 1
    36   18   19 2
    37   18   41 1
    38   19   20 1
    39   20   25 ar
    40   20   21 ar
    41   21   22 ar
    42   22   23 ar
    43   22   42 1
    44   23   24 ar
    45   24   25 ar
    46   24   43 1
@<TRIPOS>MOLECULE
CHEMBL481110
   62    67     0     0     0
SMALL
USER_CHARGES

@<TRIPOS>ATOM
      1 C1         -0.7768   -1.5659   -4.1911 C.ar      1 <0>        -0.1036
      2 C2          0.2237   -1.4896   -5.1493 C.ar      1 <0>        -0.0987
      3 C3          1.5003   -1.9148   -4.8306 C.ar      1 <0>        -0.0618
      4 C4          1.7573   -2.4046   -3.5744 C.ar      1 <0>        -0.1435
      5 C5          0.7638   -2.4971   -2.5735 C.ar      1 <0>         0.1032
      6 C6         -0.5294   -2.0534   -2.9346 C.ar      1 <0>        -0.0665
      7 N1          1.1725   -3.0005   -1.3883 N.2       1 <0>        -0.5195
      8 C7          2.4092   -3.3810   -1.1723 C.2       1 <0>         0.3427
      9 S1          3.1919   -3.0429   -2.7430 S.3       1 <0>        -0.0356
     10 O1          2.9538   -3.8976   -0.0465 O.3       1 <0>        -0.1825
     11 C8          4.2487   -4.3101   -0.0948 C.ar      1 <0>         0.0021
     12 C9          5.2752   -3.3777   -0.0570 C.ar      1 <0>        -0.0608
     13 C10         6.5904   -3.7958   -0.1057 C.ar      1 <0>        -0.1725
     14 C11         6.8853   -5.1501   -0.1924 C.ar      1 <0>         0.2297
     15 C12         5.8572   -6.0829   -0.2302 C.ar      1 <0>        -0.1878
     16 C13         4.5426   -5.6635   -0.1762 C.ar      1 <0>        -0.0496
     17 N2          8.2175   -5.5744   -0.2422 N.pl3     1 <0>        -0.7378
     18 C14         8.5283   -7.0032   -0.3337 C.3       1 <0>         0.1406
     19 C15         8.5330   -7.6144    1.0704 C.3       1 <0>        -0.1625
     20 C16         9.0042   -9.0744    0.9760 C.3       1 <0>         0.0354
     21 H1          8.9000   -9.6016    1.9244 H         1 <0>         0.1507
     22 C17         8.2090   -9.7553   -0.1617 C.3       1 <0>        -0.1411
     23 C18         9.0397   -9.4944   -1.4354 C.3       1 <0>        -0.1424
     24 C19        10.2614   -8.6797   -0.9515 C.3       1 <0>         0.0414
     25 H2         11.1592   -8.9012   -1.5285 H         1 <0>         0.1575
     26 C20         9.9041   -7.1848   -0.9812 C.3       1 <0>        -0.1521
     27 N3         10.4114   -9.0533    0.4956 N.4       1 <0>        -0.3959
     28 C21        11.0224  -10.3828    0.6254 C.3       1 <0>         0.0558
     29 C22        12.4794  -10.3052    0.2483 C.ar      1 <0>        -0.1784
     30 C23        12.8619  -10.5055   -1.0665 C.ar      1 <0>        -0.1148
     31 C24        14.1935  -10.4363   -1.4189 C.ar      1 <0>        -0.0836
     32 C25        15.1571  -10.1629   -0.4448 C.ar      1 <0>        -0.0904
     33 C26        14.7634   -9.9613    0.8805 C.ar      1 <0>        -0.0834
     34 C27        13.4277  -10.0283    1.2174 C.ar      1 <0>        -0.1100
     35 C28        16.5836  -10.0878   -0.8139 C.2       1 <0>         0.5090
     36 O2         16.9250  -10.2651   -1.9747 O.co2     1 <0>        -0.6724
     37 O3         17.4246   -9.8482    0.0410 O.co2     1 <0>        -0.6720
     38 H3         -1.7724   -1.2292   -4.4399 H         1 <0>         0.1377
     39 H4          0.0077   -1.1024   -6.1341 H         1 <0>         0.1414
     40 H5          2.2899   -1.8623   -5.5654 H         1 <0>         0.1350
     41 H6         -1.3308   -2.0993   -2.2121 H         1 <0>         0.1362
     42 H7          5.0456   -2.3245    0.0101 H         1 <0>         0.1380
     43 H8          7.3894   -3.0697   -0.0766 H         1 <0>         0.1364
     44 H9          6.0858   -7.1362   -0.2980 H         1 <0>         0.1313
     45 H10         3.7430   -6.3890   -0.2010 H         1 <0>         0.1390
     46 H11         8.9355   -4.9227   -0.2161 H         1 <0>         0.4081
     47 H12         7.7727   -7.5003   -0.9421 H         1 <0>         0.1023
     48 H13         9.2125   -7.0522    1.7110 H         1 <0>         0.0928
     49 H14         7.5259   -7.5819    1.4861 H         1 <0>         0.1137
     50 H15         8.1240  -10.8261    0.0230 H         1 <0>         0.1010
     51 H16         7.2203   -9.3060   -0.2550 H         1 <0>         0.1088
     52 H17         9.3631  -10.4370   -1.8770 H         1 <0>         0.1023
     53 H18         8.4595   -8.9167   -2.1550 H         1 <0>         0.1119
     54 H19         9.8672   -6.8484   -2.0173 H         1 <0>         0.1177
     55 H20        10.6452   -6.6034   -0.4329 H         1 <0>         0.0971
     56 H21        10.9317  -10.7252    1.6563 H         1 <0>         0.1291
     57 H22        10.5126  -11.0832   -0.0362 H         1 <0>         0.1290
     58 H23        12.1159  -10.7168   -1.8183 H         1 <0>         0.1204
     59 H24        14.4907  -10.5936   -2.4452 H         1 <0>         0.1383
     60 H25        15.5029   -9.7495    1.6386 H         1 <0>         0.1382
     61 H26        13.1214   -9.8684    2.2406 H         1 <0>         0.1212
     62 H27        10.9483   -8.3630    0.9988 H         1 <0>         0.4244
@<TRIPOS>BOND
     1    1    6 ar
     2    1    2 ar
     3    1   38 1
     4    2    3 ar
     5    2   39 1
     6    3    4 ar
     7    3   40 1
     8    4    9 1
     9    4    5 ar
    10    5    6 ar
    11    5    7 1
    12    6   41 1
    13    7    8 2
    14    8    9 1
    15    8   10 1
    16   10   11 1
    17   11   16 ar
    18   11   12 ar
    19   12   13 ar
    20   12   42 1
    21   13   14 ar
    22   13   43 1
    23   14   15 ar
    24   14   17 1
    25   15   16 ar
    26   15   44 1
    27   16   45 1
    28   17   18 1
    29   17   46 1
    30   18   26 1
    31   18   19 1
    32   18   47 1
    33   19   20 1
    34   19   48 1
    35   19   49 1
    36   20   21 1
    37   20   27 1
    38   20   22 1
    39   22   23 1
    40   22   50 1
    41   22   51 1
    42   23   24 1
    43   23   52 1
    44   23   53 1
    45   24   25 1
    46   24   26 1
    47   24   27 1
    48   26   54 1
    49   26   55 1
    50   27   28 1
    51   27   62 1
    52   28   29 1
    53   28   56 1
    54   28   57 1
    55   29   34 ar
    56   29   30 ar
    57   30   31 ar
    58   30   58 1
    59   31   32 ar
    60   31   59 1
    61   32   33 ar
    62   32   35 1
    63   33   34 ar
    64   33   60 1
    65   34   61 1
    66   35   36 2
    67   35   37 1
@<TRIPOS>MOLECULE
CHEMBL163567
   42    44     0     0     0
SMALL
USER_CHARGES

@<TRIPOS>ATOM
      1 C1         -0.0167    1.3781    0.0096 C.ar      1 <0>        -0.1159
      2 C2          1.1709    2.0855    0.0021 C.ar      1 <0>        -0.1172
      3 C3          2.3773    1.4107   -0.0130 C.ar      1 <0>        -0.1126
      4 C4          2.3960    0.0285   -0.0201 C.ar      1 <0>        -0.0898
      5 C5          1.2084   -0.6789   -0.0117 C.ar      1 <0>        -0.1092
      6 C6          0.0021   -0.0041    0.0020 C.ar      1 <0>        -0.1163
      7 C7          3.7112   -0.7071   -0.0376 C.3       1 <0>         0.0008
      8 C8          4.1644   -0.9594    1.3773 C.2       1 <0>        -0.1155
      9 C9          3.9113   -2.0232    2.1759 C.2       1 <0>        -0.1326
     10 C10         4.4366   -2.0429    3.4561 C.2       1 <0>        -0.1677
     11 C11         5.1920   -0.9904    3.8714 C.2       1 <0>         0.0152
     12 S1          5.1801    0.0634    2.4304 S.3       1 <0>         0.0218
     13 O1          5.8015   -0.7945    5.0701 O.3       1 <0>        -0.2770
     14 C12         6.5396    0.4183    5.2321 C.3       1 <0>         0.0219
     15 C13         7.1495    0.4608    6.6346 C.3       1 <0>         0.0064
     16 N1          8.1382   -0.6170    6.7714 N.4       1 <0>        -0.3971
     17 C14         9.3187   -0.3411    5.9131 C.3       1 <0>        -0.0116
     18 C15        10.4379   -1.1908    6.5658 C.3       1 <0>        -0.1443
     19 C16        10.1382   -1.0557    8.0763 C.3       1 <0>        -0.1449
     20 C17         8.6505   -0.6662    8.1580 C.3       1 <0>        -0.0086
     21 H1         -0.9591    1.9053    0.0259 H         1 <0>         0.1247
     22 H2          1.1563    3.1654    0.0076 H         1 <0>         0.1243
     23 H3          3.3051    1.9634   -0.0196 H         1 <0>         0.1191
     24 H4          1.2231   -1.7588   -0.0176 H         1 <0>         0.1230
     25 H5         -0.9258   -0.5567    0.0082 H         1 <0>         0.1253
     26 H6          3.5884   -1.6586   -0.5549 H         1 <0>         0.1040
     27 H7          4.4573   -0.1052   -0.5563 H         1 <0>         0.0918
     28 H8          3.3077   -2.8446    1.8191 H         1 <0>         0.1460
     29 H9          4.2499   -2.8788    4.1139 H         1 <0>         0.1415
     30 H10         7.3353    0.4616    4.4884 H         1 <0>         0.0895
     31 H11         5.8723    1.2701    5.1002 H         1 <0>         0.1121
     32 H12         7.6373    1.4231    6.7897 H         1 <0>         0.1526
     33 H13         6.3626    0.3283    7.3772 H         1 <0>         0.1440
     34 H14         9.1349   -0.6678    4.8896 H         1 <0>         0.1335
     35 H15         9.5746    0.7181    5.9399 H         1 <0>         0.1359
     36 H16        10.3660   -2.2316    6.2498 H         1 <0>         0.0986
     37 H17        11.4202   -0.7819    6.3293 H         1 <0>         0.1180
     38 H18        10.3088   -2.0059    8.5824 H         1 <0>         0.1061
     39 H19        10.7583   -0.2749    8.5167 H         1 <0>         0.1049
     40 H20         8.5481    0.3125    8.6266 H         1 <0>         0.1321
     41 H21         8.1018   -1.4142    8.7303 H         1 <0>         0.1336
     42 H22         7.7247   -1.5029    6.5216 H         1 <0>         0.4337
@<TRIPOS>BOND
     1    1    6 ar
     2    1    2 ar
     3    1   21 1
     4    2    3 ar
     5    2   22 1
     6    3    4 ar
     7    3   23 1
     8    4    5 ar
     9    4    7 1
    10    5    6 ar
    11    5   24 1
    12    6   25 1
    13    7    8 1
    14    7   26 1
    15    7   27 1
    16    8   12 1
    17    8    9 2
    18    9   10 1
    19    9   28 1
    20   10   11 2
    21   10   29 1
    22   11   12 1
    23   11   13 1
    24   13   14 1
    25   14   15 1
    26   14   30 1
    27   14   31 1
    28   15   16 1
    29   15   32 1
    30   15   33 1
    31   16   20 1
    32   16   17 1
    33   16   42 1
    34   17   18 1
    35   17   34 1
    36   17   35 1
    37   18   19 1
    38   18   36 1
    39   18   37 1
    40   19   20 1
    41   19   38 1
    42   19   39 1
    43   20   40 1
    44   20   41 1
@<TRIPOS>MOLECULE
CHEMBL481531
   66    71     0     0     0
SMALL
USER_CHARGES

@<TRIPOS>ATOM
      1 C1         -1.0622    2.7876    0.7688 C.ar      1 <0>        -0.1133
      2 C2         -0.0576    3.7245    0.8920 C.ar      1 <0>        -0.0835
      3 C3          1.2426    3.3136    1.1965 C.ar      1 <0>        -0.0914
      4 C4          1.5152    1.9548    1.3740 C.ar      1 <0>        -0.0840
      5 C5          0.5006    1.0292    1.2477 C.ar      1 <0>        -0.1106
      6 C6         -0.7848    1.4435    0.9459 C.ar      1 <0>        -0.1767
      7 C7         -1.8881    0.4259    0.8100 C.3       1 <0>         0.0564
      8 N1         -1.9687   -0.0254   -0.5856 N.4       1 <0>        -0.3905
      9 C8         -2.5108    1.0531   -1.4543 C.3       1 <0>         0.0371
     10 H1         -2.0577    2.0213   -1.2411 H         1 <0>         0.1488
     11 C9         -4.0303    1.0431   -1.1689 C.3       1 <0>        -0.1675
     12 C10        -4.3326   -0.3912   -0.6875 C.3       1 <0>        -0.1398
     13 C11        -2.9683   -1.1176   -0.7259 C.3       1 <0>         0.0333
     14 H2         -2.8767   -1.8644    0.0628 H         1 <0>         0.1474
     15 C12        -2.7941   -1.7170   -2.1305 C.3       1 <0>        -0.1461
     16 C13        -3.1357   -0.6474   -3.1718 C.3       1 <0>         0.1521
     17 C14        -2.2892    0.6186   -2.9120 C.3       1 <0>        -0.1740
     18 N2         -4.5601   -0.3169   -3.0817 N.pl3     1 <0>        -0.7576
     19 C15        -5.0484    0.8452   -3.6891 C.ar      1 <0>         0.1656
     20 C16        -4.3214    1.4582   -4.7011 C.ar      1 <0>        -0.1512
     21 C17        -4.8040    2.6051   -5.3001 C.ar      1 <0>        -0.1479
     22 C18        -6.0148    3.1449   -4.8910 C.ar      1 <0>         0.0858
     23 C19        -6.7416    2.5331   -3.8800 C.ar      1 <0>        -0.0964
     24 C20        -6.2630    1.3829   -3.2841 C.ar      1 <0>        -0.1478
     25 O1         -6.4891    4.2745   -5.4809 O.3       1 <0>        -0.2553
     26 C21        -5.8124    4.7678   -6.5503 C.ar      1 <0>         0.1043
     27 C22        -5.8157    4.0727   -7.7529 C.ar      1 <0>        -0.1394
     28 C23        -5.1302    4.5700   -8.8402 C.ar      1 <0>        -0.0548
     29 C24        -4.4323    5.7743   -8.7319 C.ar      1 <0>        -0.0140
     30 C25        -4.4318    6.4703   -7.5217 C.ar      1 <0>        -0.0739
     31 C26        -5.1236    5.9690   -6.4402 C.ar      1 <0>        -0.1176
     32 C27        -3.6955    6.3109   -9.8956 C.2       1 <0>         0.1435
     33 N3         -3.5769    5.8133  -11.1188 N.2       1 <0>        -0.4952
     34 C28        -2.8745    6.4307  -12.0401 C.2       1 <0>         0.0258
     35 C29        -2.2528    7.6028  -11.7459 C.2       1 <0>        -0.1938
     36 S1         -2.7306    7.8097  -10.0350 S.3       1 <0>         0.0205
     37 C30         2.3228    4.3098    1.3295 C.2       1 <0>         0.5097
     38 O2          2.0810    5.4984    1.1732 O.co2     1 <0>        -0.6728
     39 O3          3.4598    3.9470    1.5961 O.co2     1 <0>        -0.6728
     40 H3         -2.0686    3.1041    0.5379 H         1 <0>         0.1198
     41 H4         -0.2754    4.7732    0.7532 H         1 <0>         0.1378
     42 H5          2.5180    1.6301    1.6092 H         1 <0>         0.1379
     43 H6          0.7099   -0.0215    1.3842 H         1 <0>         0.1207
     44 H7         -1.6778   -0.4265    1.4559 H         1 <0>         0.1269
     45 H8         -2.8366    0.8773    1.1012 H         1 <0>         0.1274
     46 H9         -4.2745    1.7644   -0.3890 H         1 <0>         0.0818
     47 H10        -4.5886    1.2634   -2.0788 H         1 <0>         0.1502
     48 H11        -4.7254   -0.3753    0.3291 H         1 <0>         0.0880
     49 H12        -5.0396   -0.8762   -1.3606 H         1 <0>         0.1152
     50 H13        -1.7617   -2.0401   -2.2641 H         1 <0>         0.1022
     51 H14        -3.4634   -2.5691   -2.2494 H         1 <0>         0.1143
     52 H15        -2.9151   -1.0285   -4.1689 H         1 <0>         0.0876
     53 H16        -2.6109    1.4148   -3.5832 H         1 <0>         0.1264
     54 H17        -1.2321    0.4075   -3.0733 H         1 <0>         0.0982
     55 H18        -5.1647   -0.9037   -2.6011 H         1 <0>         0.4074
     56 H19        -3.3787    1.0383   -5.0195 H         1 <0>         0.1317
     57 H20        -4.2386    3.0821   -6.0869 H         1 <0>         0.1333
     58 H21        -7.6840    2.9539   -3.5620 H         1 <0>         0.1380
     59 H22        -6.8313    0.9040   -2.5004 H         1 <0>         0.1333
     60 H23        -6.3557    3.1411   -7.8359 H         1 <0>         0.1388
     61 H24        -5.1326    4.0286   -9.7747 H         1 <0>         0.1441
     62 H25        -3.8930    7.4022   -7.4342 H         1 <0>         0.1382
     63 H26        -5.1267    6.5088   -5.5047 H         1 <0>         0.1437
     64 H27        -2.7905    6.0077  -13.0303 H         1 <0>         0.1718
     65 H28        -1.6427    8.2362  -12.3729 H         1 <0>         0.2025
     66 H29        -1.0638   -0.3278   -0.9138 H         1 <0>         0.4203
@<TRIPOS>BOND
     1    1    6 ar
     2    1    2 ar
     3    1   40 1
     4    2    3 ar
     5    2   41 1
     6    3    4 ar
     7    3   37 1
     8    4    5 ar
     9    4   42 1
    10    5    6 ar
    11    5   43 1
    12    6    7 1
    13    7    8 1
    14    7   44 1
    15    7   45 1
    16    8   13 1
    17    8    9 1
    18    8   66 1
    19    9   10 1
    20    9   17 1
    21    9   11 1
    22   11   12 1
    23   11   46 1
    24   11   47 1
    25   12   13 1
    26   12   48 1
    27   12   49 1
    28   13   14 1
    29   13   15 1
    30   15   16 1
    31   15   50 1
    32   15   51 1
    33   16   17 1
    34   16   18 1
    35   16   52 1
    36   17   53 1
    37   17   54 1
    38   18   19 1
    39   18   55 1
    40   19   24 ar
    41   19   20 ar
    42   20   21 ar
    43   20   56 1
    44   21   22 ar
    45   21   57 1
    46   22   23 ar
    47   22   25 1
    48   23   24 ar
    49   23   58 1
    50   24   59 1
    51   25   26 1
    52   26   31 ar
    53   26   27 ar
    54   27   28 ar
    55   27   60 1
    56   28   29 ar
    57   28   61 1
    58   29   30 ar
    59   29   32 1
    60   30   31 ar
    61   30   62 1
    62   31   63 1
    63   32   36 1
    64   32   33 2
    65   33   34 1
    66   34   35 2
    67   34   64 1
    68   35   36 1
    69   35   65 1
    70   37   38 2
    71   37   39 1
@<TRIPOS>MOLECULE
CHEMBL477514
   48    49     0     0     0
SMALL
USER_CHARGES

@<TRIPOS>ATOM
      1 C1         -0.3354    0.6988    0.0812 C.ar      1 <0>        -0.1134
      2 C2          0.7459    1.5554   -0.0080 C.ar      1 <0>        -0.1161
      3 C3          2.0305    1.0459   -0.0403 C.ar      1 <0>        -0.1056
      4 C4          2.2338   -0.3202    0.0172 C.ar      1 <0>        -0.1231
      5 C5          1.1526   -1.1767    0.1073 C.ar      1 <0>        -0.1094
      6 C6         -0.1321   -0.6673    0.1382 C.ar      1 <0>        -0.1156
      7 C7          3.6342   -0.8757   -0.0190 C.3       1 <0>         0.1553
      8 C8          3.9973   -1.2504   -1.4573 C.3       1 <0>         0.0319
      9 O1          5.3630   -1.6675   -1.5106 O.3       1 <0>        -0.3031
     10 C9          5.8485   -2.0373   -2.7256 C.ar      1 <0>         0.1206
     11 C10         5.0275   -1.9933   -3.8429 C.ar      1 <0>        -0.1894
     12 C11         5.5199   -2.3687   -5.0772 C.ar      1 <0>        -0.0766
     13 C12         6.8372   -2.7903   -5.1998 C.ar      1 <0>         0.1007
     14 C13         7.6584   -2.8341   -4.0811 C.ar      1 <0>        -0.1018
     15 C14         7.1663   -2.4530   -2.8484 C.ar      1 <0>        -0.1312
     16 N1          7.3373   -3.1718   -6.4517 N.am      1 <0>        -0.6705
     17 C15         6.8932   -2.5627   -7.5689 C.2       1 <0>         0.5102
     18 O2          6.1334   -1.6209   -7.4850 O.2       1 <0>        -0.5082
     19 C16         7.3406   -3.0516   -8.9224 C.3       1 <0>        -0.1525
     20 C17         6.6959   -2.1941  -10.0132 C.3       1 <0>        -0.1137
     21 C18         7.1502   -2.6905  -11.3873 C.3       1 <0>        -0.0494
     22 H1          6.9274   -3.7533  -11.4815 H         1 <0>         0.1352
     23 C19         6.4216   -1.9272  -12.4632 C.2       1 <0>         0.4883
     24 O3          6.8958   -0.8947  -12.9057 O.co2     1 <0>        -0.6665
     25 O4          5.3580   -2.3420  -12.8912 O.co2     1 <0>        -0.6347
     26 N2          8.5967   -2.4788  -11.5307 N.4       1 <0>        -0.6156
     27 O5          3.7070   -2.0382    0.8089 O.3       1 <0>        -0.5430
     28 H2         -1.3388    1.0971    0.1109 H         1 <0>         0.1255
     29 H3          0.5870    2.6227   -0.0529 H         1 <0>         0.1268
     30 H4          2.8752    1.7151   -0.1107 H         1 <0>         0.1262
     31 H5          1.3114   -2.2441    0.1518 H         1 <0>         0.1217
     32 H6         -0.9769   -1.3365    0.2082 H         1 <0>         0.1262
     33 H7          4.3329   -0.1239    0.3481 H         1 <0>         0.1194
     34 H8          3.3553   -2.0645   -1.7938 H         1 <0>         0.0682
     35 H9          3.8562   -0.3850   -2.1048 H         1 <0>         0.0751
     36 H10         4.0028   -1.6657   -3.7474 H         1 <0>         0.1311
     37 H11         4.8805   -2.3348   -5.9469 H         1 <0>         0.1373
     38 H12         8.6830   -3.1623   -4.1756 H         1 <0>         0.1332
     39 H13         7.8062   -2.4828   -1.9789 H         1 <0>         0.1375
     40 H14         8.0033   -3.8743   -6.5144 H         1 <0>         0.4103
     41 H15         8.4256   -2.9768   -8.9952 H         1 <0>         0.0875
     42 H16         7.0386   -4.0910   -9.0513 H         1 <0>         0.1104
     43 H17         5.6109   -2.2688   -9.9403 H         1 <0>         0.1155
     44 H18         6.9980   -1.1547   -9.8842 H         1 <0>         0.0941
     45 H19         8.8030   -1.4949  -11.4435 H         1 <0>         0.4345
     46 H20         9.0845   -2.9898  -10.8104 H         1 <0>         0.4107
     47 H21         3.1106   -2.7503    0.5403 H         1 <0>         0.3741
     48 H22         8.8963   -2.8061  -12.4369 H         1 <0>         0.4319
@<TRIPOS>BOND
     1    1    6 ar
     2    1    2 ar
     3    1   28 1
     4    2    3 ar
     5    2   29 1
     6    3    4 ar
     7    3   30 1
     8    4    5 ar
     9    4    7 1
    10    5    6 ar
    11    5   31 1
    12    6   32 1
    13    7    8 1
    14    7   27 1
    15    7   33 1
    16    8    9 1
    17    8   34 1
    18    8   35 1
    19    9   10 1
    20   10   15 ar
    21   10   11 ar
    22   11   12 ar
    23   11   36 1
    24   12   13 ar
    25   12   37 1
    26   13   14 ar
    27   13   16 1
    28   14   15 ar
    29   14   38 1
    30   15   39 1
    31   16   17 am
    32   16   40 1
    33   17   18 2
    34   17   19 1
    35   19   20 1
    36   19   41 1
    37   19   42 1
    38   20   21 1
    39   20   43 1
    40   20   44 1
    41   21   22 1
    42   21   23 1
    43   21   26 1
    44   23   24 2
    45   23   25 1
    46   26   45 1
    47   26   46 1
    48   26   48 1
    49   27   47 1
@<TRIPOS>MOLECULE
CHEMBL477514__1
   48    49     0     0     0
SMALL
USER_CHARGES

@<TRIPOS>ATOM
      1 C1          0.3651    2.0130    0.1322 C.ar      1 <0>        -0.1132
      2 C2          1.6314    2.5582    0.0317 C.ar      1 <0>        -0.1166
      3 C3          2.7386    1.7315   -0.0099 C.ar      1 <0>        -0.1048
      4 C4          2.5794    0.3597    0.0493 C.ar      1 <0>        -0.1231
      5 C5          1.3132   -0.1855    0.1507 C.ar      1 <0>        -0.1097
      6 C6          0.2060    0.6411    0.1910 C.ar      1 <0>        -0.1154
      7 C7          3.7864   -0.5416    0.0029 C.3       1 <0>         0.1554
      8 C8          4.1379   -0.9966    1.4207 C.3       1 <0>         0.0316
      9 O1          5.3486   -1.7552    1.3911 O.3       1 <0>        -0.3031
     10 C9          5.8039   -2.2377    2.5780 C.ar      1 <0>         0.1206
     11 C10         5.0955   -1.9899    3.7447 C.ar      1 <0>        -0.1894
     12 C11         5.5574   -2.4796    4.9504 C.ar      1 <0>        -0.0766
     13 C12         6.7310   -3.2202    4.9948 C.ar      1 <0>         0.1007
     14 C13         7.4395   -3.4678    3.8266 C.ar      1 <0>        -0.1018
     15 C14         6.9735   -2.9823    2.6208 C.ar      1 <0>        -0.1312
     16 N1          7.2005   -3.7170    6.2179 N.am      1 <0>        -0.6705
     17 C15         6.3266   -4.0930    7.1725 C.2       1 <0>         0.5103
     18 O2          5.1362   -4.0919    6.9395 O.2       1 <0>        -0.5083
     19 C16         6.8283   -4.5147    8.5295 C.3       1 <0>        -0.1526
     20 C17         5.6408   -4.8890    9.4187 C.3       1 <0>        -0.1137
     21 C18         6.1502   -5.3171   10.7964 C.3       1 <0>        -0.0494
     22 H1          6.7743   -4.5273   11.2145 H         1 <0>         0.1352
     23 C19         4.9781   -5.5677   11.7098 C.2       1 <0>         0.4884
     24 O3          4.4817   -6.6795   11.7735 O.co2     1 <0>        -0.6665
     25 O4          4.5261   -4.6587   12.3850 O.co2     1 <0>        -0.6347
     26 N2          6.9408   -6.5482   10.6653 N.4       1 <0>        -0.6157
     27 O5          3.4972   -1.6836   -0.8060 O.3       1 <0>        -0.5430
     28 H2         -0.4996    2.6590    0.1693 H         1 <0>         0.1256
     29 H3          1.7557    3.6300   -0.0145 H         1 <0>         0.1266
     30 H4          3.7279    2.1575   -0.0891 H         1 <0>         0.1262
     31 H5          1.1889   -1.2574    0.1967 H         1 <0>         0.1216
     32 H6         -0.7834    0.2151    0.2698 H         1 <0>         0.1264
     33 H7          4.6294    0.0018   -0.4238 H         1 <0>         0.1189
     34 H8          4.2715   -0.1238    2.0598 H         1 <0>         0.0747
     35 H9          3.3312   -1.6150    1.8144 H         1 <0>         0.0684
     36 H10         4.1828   -1.4136    3.7101 H         1 <0>         0.1311
     37 H11         5.0060   -2.2864    5.8587 H         1 <0>         0.1373
     38 H12         8.3527   -4.0435    3.8605 H         1 <0>         0.1332
     39 H13         7.5222   -3.1786    1.7115 H         1 <0>         0.1375
     40 H14         8.1544   -3.7903    6.3775 H         1 <0>         0.4103
     41 H15         7.4872   -5.3762    8.4217 H         1 <0>         0.0876
     42 H16         7.3783   -3.6914    8.9855 H         1 <0>         0.1104
     43 H17         4.9819   -4.0274    9.5265 H         1 <0>         0.1155
     44 H18         5.0908   -5.7122    8.9627 H         1 <0>         0.0941
     45 H19         6.3631   -7.2793   10.2782 H         1 <0>         0.4345
     46 H20         7.7256   -6.3804   10.0537 H         1 <0>         0.4107
     47 H21         2.7562   -2.2155   -0.4850 H         1 <0>         0.3746
     48 H22         7.2768   -6.8306   11.5739 H         1 <0>         0.4319
@<TRIPOS>BOND
     1    1    6 ar
     2    1    2 ar
     3    1   28 1
     4    2    3 ar
     5    2   29 1
     6    3    4 ar
     7    3   30 1
     8    4    5 ar
     9    4    7 1
    10    5    6 ar
    11    5   31 1
    12    6   32 1
    13    7    8 1
    14    7   27 1
    15    7   33 1
    16    8    9 1
    17    8   34 1
    18    8   35 1
    19    9   10 1
    20   10   15 ar
    21   10   11 ar
    22   11   12 ar
    23   11   36 1
    24   12   13 ar
    25   12   37 1
    26   13   14 ar
    27   13   16 1
    28   14   15 ar
    29   14   38 1
    30   15   39 1
    31   16   17 am
    32   16   40 1
    33   17   18 2
    34   17   19 1
    35   19   20 1
    36   19   41 1
    37   19   42 1
    38   20   21 1
    39   20   43 1
    40   20   44 1
    41   21   22 1
    42   21   23 1
    43   21   26 1
    44   23   24 2
    45   23   25 1
    46   26   45 1
    47   26   46 1
    48   26   48 1
    49   27   47 1
@<TRIPOS>MOLECULE
CHEMBL446514
   48    51     0     0     0
SMALL
USER_CHARGES

@<TRIPOS>ATOM
      1 C1         -0.7769   -1.5640   -4.1921 C.ar      1 <0>        -0.1025
      2 C2          0.2236   -1.4876   -5.1504 C.ar      1 <0>        -0.0908
      3 C3          1.5001   -1.9127   -4.8317 C.ar      1 <0>        -0.0640
      4 C4          1.7573   -2.4026   -3.5756 C.ar      1 <0>        -0.1369
      5 C5          0.7639   -2.4953   -2.5746 C.ar      1 <0>         0.0973
      6 C6         -0.5293   -2.0517   -2.9356 C.ar      1 <0>        -0.0607
      7 N1          1.1726   -2.9992   -1.3897 N.2       1 <0>        -0.5072
      8 C7          2.4092   -3.3799   -1.1739 C.2       1 <0>         0.3332
      9 S1          3.1919   -3.0415   -2.7446 S.3       1 <0>        -0.0346
     10 O1          2.9537   -3.8977   -0.0484 O.3       1 <0>        -0.1905
     11 C8          4.2478   -4.3100   -0.0970 C.ar      1 <0>         0.0783
     12 C9          5.2756   -3.3788   -0.0584 C.ar      1 <0>        -0.1105
     13 C10         6.5902   -3.8004   -0.1079 C.ar      1 <0>        -0.0924
     14 C11         6.8820   -5.1491   -0.1964 C.ar      1 <0>        -0.0916
     15 C12         5.8595   -6.0791   -0.2351 C.ar      1 <0>        -0.0940
     16 C13         4.5434   -5.6631   -0.1796 C.ar      1 <0>        -0.0974
     17 C14         8.3170   -5.6061   -0.2514 C.3       1 <0>        -0.1036
     18 C15         8.8295   -5.8495    1.1696 C.3       1 <0>        -0.0077
     19 N2         10.2283   -6.2950    1.1160 N.4       1 <0>        -0.3855
     20 C16        10.3003   -7.5959    0.4402 C.3       1 <0>        -0.0083
     21 C17        11.7628   -8.0268    0.3095 C.3       1 <0>        -0.1436
     22 C18        12.3825   -8.1400    1.7054 C.3       1 <0>         0.0957
     23 C19        12.2352   -6.7983    2.4288 C.3       1 <0>        -0.1839
     24 C20        10.7552   -6.4129    2.4809 C.3       1 <0>        -0.0025
     25 O2         13.7679   -8.4698    1.5878 O.3       1 <0>        -0.5531
     26 H1         -1.7725   -1.2274   -4.4407 H         1 <0>         0.1410
     27 H2          0.0074   -1.1003   -6.1351 H         1 <0>         0.1444
     28 H3          2.2897   -1.8600   -5.5667 H         1 <0>         0.1369
     29 H4         -1.3307   -2.0977   -2.2131 H         1 <0>         0.1386
     30 H5          5.0482   -2.3252    0.0100 H         1 <0>         0.1430
     31 H6          7.3906   -3.0760   -0.0779 H         1 <0>         0.1389
     32 H7          6.0901   -7.1319   -0.3046 H         1 <0>         0.1394
     33 H8          3.7452   -6.3901   -0.2053 H         1 <0>         0.1454
     34 H9          8.3820   -6.5311   -0.8244 H         1 <0>         0.1002
     35 H10         8.9248   -4.8385   -0.7303 H         1 <0>         0.1006
     36 H11         8.7644   -4.9245    1.7426 H         1 <0>         0.1352
     37 H12         8.2217   -6.6171    1.6485 H         1 <0>         0.1338
     38 H13         9.7540   -8.3381    1.0223 H         1 <0>         0.1327
     39 H14         9.8560   -7.5146   -0.5518 H         1 <0>         0.1390
     40 H15        11.8140   -8.9938   -0.1909 H         1 <0>         0.1200
     41 H16        12.3100   -7.2855   -0.2727 H         1 <0>         0.0967
     42 H17        11.8683   -8.9173    2.2706 H         1 <0>         0.0734
     43 H18        12.6241   -6.8871    3.4432 H         1 <0>         0.1152
     44 H19        12.7922   -6.0314    1.8906 H         1 <0>         0.0972
     45 H20        10.6467   -5.4582    2.9956 H         1 <0>         0.1347
     46 H21        10.1992   -7.1803    3.0196 H         1 <0>         0.1312
     47 H22        14.2247   -8.5575    2.4356 H         1 <0>         0.3947
     48 H23        10.7755   -5.6206    0.6024 H         1 <0>         0.4245
@<TRIPOS>BOND
     1    1    6 ar
     2    1    2 ar
     3    1   26 1
     4    2    3 ar
     5    2   27 1
     6    3    4 ar
     7    3   28 1
     8    4    9 1
     9    4    5 ar
    10    5    6 ar
    11    5    7 1
    12    6   29 1
    13    7    8 2
    14    8    9 1
    15    8   10 1
    16   10   11 1
    17   11   16 ar
    18   11   12 ar
    19   12   13 ar
    20   12   30 1
    21   13   14 ar
    22   13   31 1
    23   14   15 ar
    24   14   17 1
    25   15   16 ar
    26   15   32 1
    27   16   33 1
    28   17   18 1
    29   17   34 1
    30   17   35 1
    31   18   19 1
    32   18   36 1
    33   18   37 1
    34   19   24 1
    35   19   20 1
    36   19   48 1
    37   20   21 1
    38   20   38 1
    39   20   39 1
    40   21   22 1
    41   21   40 1
    42   21   41 1
    43   22   23 1
    44   22   25 1
    45   22   42 1
    46   23   24 1
    47   23   43 1
    48   23   44 1
    49   24   45 1
    50   24   46 1
    51   25   47 1
@<TRIPOS>MOLECULE
CHEMBL477513
   50    51     0     0     0
SMALL
USER_CHARGES

@<TRIPOS>ATOM
      1 C1         -0.1704    1.0941    0.0090 C.ar      1 <0>        -0.1231
      2 C2          1.0203    1.7727   -0.1713 C.ar      1 <0>        -0.1179
      3 C3          2.2162    1.0794   -0.1820 C.ar      1 <0>        -0.1164
      4 C4          2.2213   -0.2925   -0.0121 C.ar      1 <0>        -0.0837
      5 C5          1.0306   -0.9710    0.1690 C.ar      1 <0>        -0.1165
      6 C6         -0.1653   -0.2778    0.1784 C.ar      1 <0>        -0.1181
      7 C7          3.5249   -1.0484   -0.0248 C.3       1 <0>        -0.0779
      8 C8          4.0828   -1.1271    1.3977 C.3       1 <0>        -0.1125
      9 C9          5.4063   -1.8946    1.3848 C.3       1 <0>         0.0580
     10 O1          5.9273   -1.9681    2.7134 O.3       1 <0>        -0.3138
     11 C10         7.1077   -2.6224    2.8782 C.ar      1 <0>         0.1224
     12 C11         7.7523   -3.1764    1.7819 C.ar      1 <0>        -0.1886
     13 C12         8.9512   -3.8410    1.9486 C.ar      1 <0>        -0.0767
     14 C13         9.5115   -3.9548    3.2139 C.ar      1 <0>         0.0998
     15 C14         8.8658   -3.4001    4.3108 C.ar      1 <0>        -0.1021
     16 C15         7.6698   -2.7308    4.1418 C.ar      1 <0>        -0.1336
     17 N1         10.7276   -4.6294    3.3838 N.am      1 <0>        -0.6705
     18 C16        11.6645   -4.5838    2.4160 C.2       1 <0>         0.5102
     19 O2         11.4956   -3.8824    1.4409 O.2       1 <0>        -0.5081
     20 C17        12.9219   -5.4043    2.5452 C.3       1 <0>        -0.1525
     21 C18        13.8104   -5.1722    1.3215 C.3       1 <0>        -0.1137
     22 C19        15.0870   -6.0052    1.4527 C.3       1 <0>        -0.0495
     23 H1         14.8238   -7.0517    1.6065 H         1 <0>         0.1352
     24 C20        15.9049   -5.8727    0.1939 C.2       1 <0>         0.4884
     25 O3         16.7366   -4.9864    0.0978 O.co2     1 <0>        -0.6666
     26 O4         15.7349   -6.6517   -0.7284 O.co2     1 <0>        -0.6347
     27 N2         15.8702   -5.5238    2.5985 N.4       1 <0>        -0.6157
     28 H2         -1.1043    1.6363    0.0219 H         1 <0>         0.1217
     29 H3          1.0163    2.8445   -0.3040 H         1 <0>         0.1224
     30 H4          3.1465    1.6095   -0.3235 H         1 <0>         0.1217
     31 H5          1.0346   -2.0428    0.3014 H         1 <0>         0.1215
     32 H6         -1.0956   -0.8079    0.3195 H         1 <0>         0.1223
     33 H7          3.3570   -2.0559   -0.4055 H         1 <0>         0.0765
     34 H8          4.2384   -0.5317   -0.6668 H         1 <0>         0.0768
     35 H9          4.2507   -0.1196    1.7783 H         1 <0>         0.0765
     36 H10         3.3694   -1.6439    2.0397 H         1 <0>         0.0764
     37 H11         5.2383   -2.9021    1.0041 H         1 <0>         0.0642
     38 H12         6.1197   -1.3779    0.7428 H         1 <0>         0.0645
     39 H13         7.3162   -3.0882    0.7978 H         1 <0>         0.1326
     40 H14         9.4527   -4.2726    1.0950 H         1 <0>         0.1373
     41 H15         9.3008   -3.4885    5.2953 H         1 <0>         0.1326
     42 H16         7.1696   -2.2954    4.9943 H         1 <0>         0.1363
     43 H17        10.8953   -5.1293    4.1980 H         1 <0>         0.4101
     44 H18        13.4590   -5.1067    3.4458 H         1 <0>         0.0874
     45 H19        12.6614   -6.4607    2.6100 H         1 <0>         0.1103
     46 H20        13.2733   -5.4698    0.4208 H         1 <0>         0.1156
     47 H21        14.0709   -4.1158    1.2567 H         1 <0>         0.0941
     48 H22        16.7121   -6.0731    2.6850 H         1 <0>         0.4318
     49 H23        16.1139   -4.5550    2.4561 H         1 <0>         0.4345
     50 H24        15.3226   -5.6125    3.4413 H         1 <0>         0.4107
@<TRIPOS>BOND
     1    1    6 ar
     2    1    2 ar
     3    1   28 1
     4    2    3 ar
     5    2   29 1
     6    3    4 ar
     7    3   30 1
     8    4    5 ar
     9    4    7 1
    10    5    6 ar
    11    5   31 1
    12    6   32 1
    13    7    8 1
    14    7   33 1
    15    7   34 1
    16    8    9 1
    17    8   35 1
    18    8   36 1
    19    9   10 1
    20    9   37 1
    21    9   38 1
    22   10   11 1
    23   11   16 ar
    24   11   12 ar
    25   12   13 ar
    26   12   39 1
    27   13   14 ar
    28   13   40 1
    29   14   15 ar
    30   14   17 1
    31   15   16 ar
    32   15   41 1
    33   16   42 1
    34   17   18 am
    35   17   43 1
    36   18   19 2
    37   18   20 1
    38   20   21 1
    39   20   44 1
    40   20   45 1
    41   21   22 1
    42   21   46 1
    43   21   47 1
    44   22   23 1
    45   22   24 1
    46   22   27 1
    47   24   25 2
    48   24   26 1
    49   27   48 1
    50   27   49 1
    51   27   50 1
@<TRIPOS>MOLECULE
CHEMBL472138
   57    61     0     0     0
SMALL
USER_CHARGES

@<TRIPOS>ATOM
      1 C1          0.0463   -0.2763   -4.2821 C.ar      1 <0>        -0.1027
      2 C2          1.0983   -0.2401   -5.1860 C.ar      1 <0>        -0.0926
      3 C3          2.3088   -0.8115   -4.8393 C.ar      1 <0>        -0.0637
      4 C4          2.4508   -1.4041   -3.6095 C.ar      1 <0>        -0.1380
      5 C5          1.4020   -1.4598   -2.6637 C.ar      1 <0>         0.0987
      6 C6          0.1789   -0.8658   -3.0522 C.ar      1 <0>        -0.0619
      7 N1          1.6969   -2.0770   -1.4988 N.2       1 <0>        -0.5094
      8 C7          2.8774   -2.5937   -1.2533 C.2       1 <0>         0.3344
      9 S1          3.7706   -2.2362   -2.7596 S.3       1 <0>        -0.0370
     10 O1          3.3093   -3.2340   -0.1422 O.3       1 <0>        -0.1849
     11 C8          4.5578   -3.7720   -0.1602 C.ar      1 <0>         0.0387
     12 C9          5.6683   -2.9528   -0.0185 C.ar      1 <0>        -0.0724
     13 C10         6.9366   -3.4994   -0.0368 C.ar      1 <0>        -0.1244
     14 C11         7.0999   -4.8675   -0.1968 C.ar      1 <0>         0.1331
     15 C12         5.9896   -5.6867   -0.3388 C.ar      1 <0>        -0.1902
     16 C13         4.7211   -5.1410   -0.3144 C.ar      1 <0>        -0.0590
     17 O2          8.3485   -5.4056   -0.2147 O.3       1 <0>        -0.3223
     18 C14         8.4424   -6.8215   -0.3831 C.3       1 <0>         0.0217
     19 C15         9.9143   -7.2392   -0.3780 C.3       1 <0>        -0.0003
     20 N2         10.5040   -6.9389    0.9335 N.4       1 <0>        -0.3886
     21 C16        11.9495   -7.1894    0.8872 C.3       1 <0>         0.0011
     22 C17        12.5813   -6.8012    2.2258 C.3       1 <0>        -0.1698
     23 C18        11.9521   -7.6386    3.3429 C.3       1 <0>         0.1765
     24 C19        10.4354   -7.4267    3.3339 C.3       1 <0>        -0.1680
     25 C20         9.8831   -7.7916    1.9543 C.3       1 <0>        -0.0058
     26 N3         12.4976   -7.2192    4.6362 N.am      1 <0>        -0.6376
     27 C21        13.2460   -8.0700    5.5826 C.3       1 <0>         0.0633
     28 C22        13.8726   -7.0255    6.5365 C.3       1 <0>         0.0371
     29 O3         12.9748   -5.9081    6.3897 O.3       1 <0>        -0.3186
     30 C23        12.4115   -5.9871    5.1722 C.2       1 <0>         0.6470
     31 O4         11.8784   -5.0477    4.6156 O.2       1 <0>        -0.5142
     32 H1         -0.8973    0.1743   -4.5523 H         1 <0>         0.1403
     33 H2          0.9729    0.2291   -6.1506 H         1 <0>         0.1437
     34 H3          3.1372   -0.7918   -5.5320 H         1 <0>         0.1363
     35 H4         -0.6598   -0.8764   -2.3718 H         1 <0>         0.1382
     36 H5          5.5411   -1.8875    0.1057 H         1 <0>         0.1498
     37 H6          7.8011   -2.8615    0.0731 H         1 <0>         0.1482
     38 H7          6.1169   -6.7518   -0.4641 H         1 <0>         0.1417
     39 H8          3.8564   -5.7794   -0.4199 H         1 <0>         0.1474
     40 H9          7.9204   -7.3200    0.4337 H         1 <0>         0.0896
     41 H10         7.9874   -7.1055   -1.3320 H         1 <0>         0.1136
     42 H11         9.9891   -8.3089   -0.5737 H         1 <0>         0.1523
     43 H12        10.4505   -6.6900   -1.1519 H         1 <0>         0.1454
     44 H13        12.1286   -8.2472    0.6946 H         1 <0>         0.1335
     45 H14        12.3954   -6.5951    0.0896 H         1 <0>         0.1382
     46 H15        13.6543   -6.9896    2.1900 H         1 <0>         0.1178
     47 H16        12.4031   -5.7435    2.4193 H         1 <0>         0.1062
     48 H17        12.1738   -8.6929    3.1772 H         1 <0>         0.1133
     49 H18         9.9746   -8.0621    4.0901 H         1 <0>         0.1176
     50 H19        10.2126   -6.3819    3.5504 H         1 <0>         0.1058
     51 H20         8.8035   -7.6420    1.9444 H         1 <0>         0.1338
     52 H21        10.1062   -8.8366    1.7389 H         1 <0>         0.1349
     53 H22        12.5721   -8.7344    6.1234 H         1 <0>         0.0958
     54 H23        14.0201   -8.6373    5.0658 H         1 <0>         0.1047
     55 H24        13.8763   -7.3895    7.5639 H         1 <0>         0.1286
     56 H25        14.8799   -6.7602    6.2155 H         1 <0>         0.0995
     57 H26        10.3397   -5.9697    1.1610 H         1 <0>         0.4338
@<TRIPOS>BOND
     1    1    6 ar
     2    1    2 ar
     3    1   32 1
     4    2    3 ar
     5    2   33 1
     6    3    4 ar
     7    3   34 1
     8    4    9 1
     9    4    5 ar
    10    5    6 ar
    11    5    7 1
    12    6   35 1
    13    7    8 2
    14    8    9 1
    15    8   10 1
    16   10   11 1
    17   11   16 ar
    18   11   12 ar
    19   12   13 ar
    20   12   36 1
    21   13   14 ar
    22   13   37 1
    23   14   15 ar
    24   14   17 1
    25   15   16 ar
    26   15   38 1
    27   16   39 1
    28   17   18 1
    29   18   19 1
    30   18   40 1
    31   18   41 1
    32   19   20 1
    33   19   42 1
    34   19   43 1
    35   20   25 1
    36   20   21 1
    37   20   57 1
    38   21   22 1
    39   21   44 1
    40   21   45 1
    41   22   23 1
    42   22   46 1
    43   22   47 1
    44   23   24 1
    45   23   26 1
    46   23   48 1
    47   24   25 1
    48   24   49 1
    49   24   50 1
    50   25   51 1
    51   25   52 1
    52   26   30 am
    53   26   27 1
    54   27   28 1
    55   27   53 1
    56   27   54 1
    57   28   29 1
    58   28   55 1
    59   28   56 1
    60   29   30 1
    61   30   31 2
@<TRIPOS>MOLECULE
CHEMBL481860
   56    59     0     0     0
SMALL
USER_CHARGES

@<TRIPOS>ATOM
      1 C1          3.3354    1.3633    3.5661 C.ar      1 <0>        -0.1530
      2 C2          3.4179   -0.0168    3.5458 C.ar      1 <0>        -0.0832
      3 C3          3.5016   -0.6873    2.3410 C.ar      1 <0>        -0.1951
      4 C4          3.5028    0.0255    1.1504 C.ar      1 <0>         0.1194
      5 C5          3.4199    1.4104    1.1736 C.ar      1 <0>        -0.1476
      6 C6          3.3364    2.0759    2.3812 C.ar      1 <0>        -0.0817
      7 O1          3.5855   -0.6316   -0.0361 O.3       1 <0>        -0.2568
      8 C7          3.6573   -1.9892   -0.0103 C.ar      1 <0>         0.0327
      9 C8          2.4950   -2.7458   -0.0458 C.ar      1 <0>        -0.0736
     10 C9          2.5671   -4.1246   -0.0192 C.ar      1 <0>        -0.1732
     11 C10         3.8036   -4.7538    0.0426 C.ar      1 <0>         0.2123
     12 C11         4.9666   -3.9958    0.0776 C.ar      1 <0>        -0.1853
     13 C12         4.8931   -2.6172    0.0457 C.ar      1 <0>        -0.0759
     14 N1          3.8774   -6.1508    0.0700 N.pl3     1 <0>        -0.7415
     15 C13         5.1820   -6.8142    0.1352 C.3       1 <0>         0.1444
     16 C14         5.7496   -6.9680   -1.2788 C.3       1 <0>        -0.1663
     17 C15         7.0738   -7.7317   -1.2107 C.3       1 <0>        -0.0036
     18 N2          6.8478   -9.0588   -0.6256 N.4       1 <0>        -0.3827
     19 C16         6.3714   -8.9196    0.7558 C.3       1 <0>        -0.0081
     20 C17         5.0202   -8.2015    0.7634 C.3       1 <0>        -0.1534
     21 C18         8.1062   -9.8167   -0.6340 C.3       1 <0>         0.0520
     22 C19         7.8506  -11.2201   -0.1479 C.ar      1 <0>        -0.1829
     23 C20         7.9469  -11.5095    1.2019 C.ar      1 <0>        -0.1139
     24 C21         7.7148  -12.7917    1.6540 C.ar      1 <0>        -0.0843
     25 C22         7.3813  -13.7994    0.7454 C.ar      1 <0>        -0.0890
     26 C23         7.2854  -13.4997   -0.6159 C.ar      1 <0>        -0.0841
     27 C24         7.5152  -12.2118   -1.0528 C.ar      1 <0>        -0.1086
     28 C25         7.1320  -15.1735    1.2212 C.2       1 <0>         0.5088
     29 O2          7.2171  -15.4327    2.4133 O.co2     1 <0>        -0.6721
     30 O3          6.8403  -16.0533    0.4235 O.co2     1 <0>        -0.6717
     31 H1          3.2655    1.8853    4.5090 H         1 <0>         0.1256
     32 H2          3.4173   -0.5710    4.4728 H         1 <0>         0.1250
     33 H3          3.5664   -1.7652    2.3257 H         1 <0>         0.1260
     34 H4          3.4206    1.9675    0.2484 H         1 <0>         0.1321
     35 H5          3.2714    3.1538    2.3998 H         1 <0>         0.1317
     36 H6          1.5335   -2.2563   -0.0939 H         1 <0>         0.1335
     37 H7          1.6622   -4.7134   -0.0462 H         1 <0>         0.1307
     38 H8          5.9285   -4.4845    0.1260 H         1 <0>         0.1261
     39 H9          5.7977   -2.0276    0.0689 H         1 <0>         0.1317
     40 H10         3.0649   -6.6800    0.0458 H         1 <0>         0.4064
     41 H11         5.8645   -6.2175    0.7403 H         1 <0>         0.0957
     42 H12         5.0420   -7.5206   -1.8969 H         1 <0>         0.0917
     43 H13         5.9198   -5.9823   -1.7118 H         1 <0>         0.1129
     44 H14         7.4807   -7.8428   -2.2158 H         1 <0>         0.1321
     45 H15         7.7806   -7.1782   -0.5926 H         1 <0>         0.1284
     46 H16         6.2598   -9.9075    1.2025 H         1 <0>         0.1425
     47 H17         7.0932   -8.3407    1.3320 H         1 <0>         0.1292
     48 H18         4.6690   -8.0975    1.7900 H         1 <0>         0.1172
     49 H19         4.2975   -8.7797    0.1876 H         1 <0>         0.0933
     50 H20         8.5034   -9.8503   -1.6485 H         1 <0>         0.1322
     51 H21         8.8276   -9.3305    0.0228 H         1 <0>         0.1304
     52 H22         8.2048  -10.7295    1.9030 H         1 <0>         0.1219
     53 H23         7.7910  -13.0163    2.7076 H         1 <0>         0.1387
     54 H24         7.0281  -14.2737   -1.3237 H         1 <0>         0.1387
     55 H25         7.4372  -11.9777   -2.1042 H         1 <0>         0.1221
     56 H26         6.1567   -9.5523   -1.1705 H         1 <0>         0.4227
@<TRIPOS>BOND
     1    1    6 ar
     2    1    2 ar
     3    1   31 1
     4    2    3 ar
     5    2   32 1
     6    3    4 ar
     7    3   33 1
     8    4    5 ar
     9    4    7 1
    10    5    6 ar
    11    5   34 1
    12    6   35 1
    13    7    8 1
    14    8   13 ar
    15    8    9 ar
    16    9   10 ar
    17    9   36 1
    18   10   11 ar
    19   10   37 1
    20   11   12 ar
    21   11   14 1
    22   12   13 ar
    23   12   38 1
    24   13   39 1
    25   14   15 1
    26   14   40 1
    27   15   20 1
    28   15   16 1
    29   15   41 1
    30   16   17 1
    31   16   42 1
    32   16   43 1
    33   17   18 1
    34   17   44 1
    35   17   45 1
    36   18   19 1
    37   18   21 1
    38   18   56 1
    39   19   20 1
    40   19   46 1
    41   19   47 1
    42   20   48 1
    43   20   49 1
    44   21   22 1
    45   21   50 1
    46   21   51 1
    47   22   27 ar
    48   22   23 ar
    49   23   24 ar
    50   23   52 1
    51   24   25 ar
    52   24   53 1
    53   25   26 ar
    54   25   28 1
    55   26   27 ar
    56   26   54 1
    57   27   55 1
    58   28   29 2
    59   28   30 1
@<TRIPOS>MOLECULE
CHEMBL517211
   42    43     0     0     0
SMALL
USER_CHARGES

@<TRIPOS>ATOM
      1 C1          0.5247    1.4080    1.7402 C.ar      1 <0>        -0.1579
      2 C2          0.9068    0.1684    2.2199 C.ar      1 <0>        -0.0843
      3 C3          1.9438   -0.5169    1.6183 C.ar      1 <0>        -0.1706
      4 C4          2.6032    0.0401    0.5296 C.ar      1 <0>         0.1854
      5 C5          2.2164    1.2854    0.0500 C.ar      1 <0>        -0.1719
      6 C6          1.1789    1.9654    0.6567 C.ar      1 <0>        -0.0830
      7 N1          3.6530   -0.6501   -0.0811 N.pl3     1 <0>        -0.6879
      8 C7          3.7212   -2.0444    0.0119 C.ar      1 <0>         0.1688
      9 C8          2.5542   -2.7978    0.0233 C.ar      1 <0>        -0.1406
     10 C9          2.6217   -4.1736    0.1151 C.ar      1 <0>        -0.1103
     11 C10         3.8562   -4.8043    0.1960 C.ar      1 <0>         0.1059
     12 C11         5.0229   -4.0514    0.1851 C.ar      1 <0>        -0.0848
     13 C12         4.9561   -2.6760    0.0871 C.ar      1 <0>        -0.1430
     14 N2          3.9245   -6.2009    0.2892 N.am      1 <0>        -0.6710
     15 C13         4.8883   -6.7803    1.0320 C.2       1 <0>         0.5105
     16 O1          5.7434   -6.0976    1.5555 O.2       1 <0>        -0.5079
     17 C14         4.9036   -8.2764    1.2122 C.3       1 <0>        -0.1528
     18 C15         6.0915   -8.6721    2.0916 C.3       1 <0>        -0.1126
     19 C16         6.1070  -10.1910    2.2745 C.3       1 <0>        -0.0505
     20 H1          6.1093  -10.6746    1.2977 H         1 <0>         0.1357
     21 C17         7.3435  -10.5926    3.0367 C.2       1 <0>         0.4903
     22 O2          7.2479  -11.0034    4.1807 O.co2     1 <0>        -0.6721
     23 O3          8.4394  -10.5066    2.5095 O.co2     1 <0>        -0.6323
     24 N3          4.9135  -10.6063    3.0237 N.4       1 <0>        -0.6142
     25 H2         -0.2893    1.9399    2.2100 H         1 <0>         0.1216
     26 H3          0.3937   -0.2640    3.0662 H         1 <0>         0.1233
     27 H4          2.2421   -1.4845    1.9938 H         1 <0>         0.1246
     28 H5          2.7269    1.7213   -0.7961 H         1 <0>         0.1230
     29 H6          0.8779    2.9335    0.2847 H         1 <0>         0.1245
     30 H7          4.3346   -0.1627   -0.5697 H         1 <0>         0.4106
     31 H8          1.5940   -2.3072   -0.0393 H         1 <0>         0.1308
     32 H9          1.7144   -4.7593    0.1243 H         1 <0>         0.1277
     33 H10         5.9828   -4.5422    0.2488 H         1 <0>         0.1423
     34 H11         5.8637   -2.0908    0.0737 H         1 <0>         0.1292
     35 H12         3.2781   -6.7505   -0.1809 H         1 <0>         0.4101
     36 H13         3.9765   -8.5945    1.6892 H         1 <0>         0.0874
     37 H14         4.9955   -8.7587    0.2390 H         1 <0>         0.1094
     38 H15         7.0185   -8.3541    1.6146 H         1 <0>         0.1195
     39 H16         5.9996   -8.1898    3.0648 H         1 <0>         0.0911
     40 H17         4.9114  -10.1586    3.9279 H         1 <0>         0.4329
     41 H18         4.0857  -10.3374    2.5133 H         1 <0>         0.4100
     42 H19         4.9238  -11.6080    3.1443 H         1 <0>         0.4333
@<TRIPOS>BOND
     1    1    6 ar
     2    1    2 ar
     3    1   25 1
     4    2    3 ar
     5    2   26 1
     6    3    4 ar
     7    3   27 1
     8    4    5 ar
     9    4    7 1
    10    5    6 ar
    11    5   28 1
    12    6   29 1
    13    7    8 1
    14    7   30 1
    15    8   13 ar
    16    8    9 ar
    17    9   10 ar
    18    9   31 1
    19   10   11 ar
    20   10   32 1
    21   11   12 ar
    22   11   14 1
    23   12   13 ar
    24   12   33 1
    25   13   34 1
    26   14   15 am
    27   14   35 1
    28   15   16 2
    29   15   17 1
    30   17   18 1
    31   17   36 1
    32   17   37 1
    33   18   19 1
    34   18   38 1
    35   18   39 1
    36   19   20 1
    37   19   21 1
    38   19   24 1
    39   21   22 2
    40   21   23 1
    41   24   40 1
    42   24   41 1
    43   24   42 1
@<TRIPOS>MOLECULE
CHEMBL1098819
   57    60     0     0     0
SMALL
USER_CHARGES

@<TRIPOS>ATOM
      1 C1         -0.0167    1.3781    0.0096 C.ar      1 <0>        -0.1209
      2 C2          1.1709    2.0855    0.0021 C.ar      1 <0>        -0.1166
      3 C3          2.3773    1.4107   -0.0130 C.ar      1 <0>        -0.1152
      4 C4          2.3960    0.0285   -0.0201 C.ar      1 <0>        -0.0814
      5 C5          1.2084   -0.6789   -0.0117 C.ar      1 <0>        -0.1157
      6 C6          0.0021   -0.0041    0.0020 C.ar      1 <0>        -0.1172
      7 C7          3.7112   -0.7071   -0.0376 C.3       1 <0>        -0.0444
      8 C8          4.1644   -0.9594    1.3773 C.ar      1 <0>        -0.0924
      9 C9          4.9522   -0.0267    2.0264 C.ar      1 <0>        -0.0731
     10 C10         5.3694   -0.2559    3.3232 C.ar      1 <0>        -0.1388
     11 C11         4.9969   -1.4228    3.9745 C.ar      1 <0>         0.1095
     12 C12         4.2060   -2.3568    3.3213 C.ar      1 <0>        -0.1970
     13 C13         3.7871   -2.1206    2.0262 C.ar      1 <0>        -0.0730
     14 O1          5.4064   -1.6507    5.2502 O.3       1 <0>        -0.3332
     15 C14         4.9849   -2.8733    5.8582 C.3       1 <0>         0.0386
     16 C15         5.5391   -2.9523    7.2821 C.3       1 <0>         0.0427
     17 C16         5.1935   -4.3139    7.8890 C.3       1 <0>         0.0306
     18 N1          3.7328   -4.4687    7.9382 N.3       1 <0>        -0.5355
     19 C17         3.1204   -3.3942    8.7323 C.3       1 <0>         0.0190
     20 C18         3.4831   -2.0402    8.1184 C.3       1 <0>        -0.0105
     21 N2          4.9438   -1.8866    8.0990 N.4       1 <0>        -0.5047
     22 C19         3.3606   -5.7891    8.4635 C.3       1 <0>         0.0987
     23 C20         1.8819   -6.0073    8.2722 C.ar      1 <0>        -0.0979
     24 C21         0.9925   -5.6158    9.2553 C.ar      1 <0>        -0.1186
     25 C22        -0.3640   -5.8160    9.0798 C.ar      1 <0>        -0.1173
     26 C23        -0.8311   -6.4073    7.9209 C.ar      1 <0>        -0.1083
     27 C24         0.0582   -6.7980    6.9373 C.ar      1 <0>        -0.1162
     28 C25         1.4143   -6.5939    7.1110 C.ar      1 <0>        -0.0951
     29 H1         -0.9591    1.9053    0.0259 H         1 <0>         0.1229
     30 H2          1.1563    3.1654    0.0076 H         1 <0>         0.1234
     31 H3          3.3051    1.9634   -0.0196 H         1 <0>         0.1208
     32 H4          1.2231   -1.7588   -0.0176 H         1 <0>         0.1197
     33 H5         -0.9258   -0.5567    0.0082 H         1 <0>         0.1228
     34 H6          3.5884   -1.6586   -0.5549 H         1 <0>         0.0853
     35 H7          4.4573   -0.1052   -0.5563 H         1 <0>         0.0863
     36 H8          5.2420    0.8815    1.5189 H         1 <0>         0.1341
     37 H9          5.9853    0.4726    3.8295 H         1 <0>         0.1321
     38 H10         3.9147   -3.2660    3.8262 H         1 <0>         0.1280
     39 H11         3.1678   -2.8454    1.5188 H         1 <0>         0.1290
     40 H12         3.8958   -2.9068    5.8898 H         1 <0>         0.0983
     41 H13         5.3576   -3.7160    5.2759 H         1 <0>         0.1059
     42 H14         6.6219   -2.8297    7.2578 H         1 <0>         0.1558
     43 H15         5.6226   -5.1054    7.2747 H         1 <0>         0.1280
     44 H16         5.5999   -4.3758    8.8985 H         1 <0>         0.0740
     45 H17         2.0371   -3.5147    8.7331 H         1 <0>         0.1287
     46 H18         3.4927   -3.4409    9.7557 H         1 <0>         0.0649
     47 H19         3.0988   -1.9885    7.0997 H         1 <0>         0.1388
     48 H20         3.0417   -1.2412    8.7141 H         1 <0>         0.1422
     49 H21         5.3005   -1.9461    9.0409 H         1 <0>         0.4285
     50 H22         3.9140   -6.5617    7.9297 H         1 <0>         0.0977
     51 H23         3.6007   -5.8384    9.5256 H         1 <0>         0.0577
     52 H24         1.3574   -5.1539   10.1608 H         1 <0>         0.1178
     53 H25        -1.0588   -5.5108    9.8482 H         1 <0>         0.1257
     54 H26        -1.8908   -6.5644    7.7841 H         1 <0>         0.1266
     55 H27        -0.3067   -7.2603    6.0320 H         1 <0>         0.1267
     56 H28         2.1088   -6.8957    6.3410 H         1 <0>         0.1233
     57 H29         5.1822   -0.9886    7.7056 H         1 <0>         0.4385
@<TRIPOS>BOND
     1    1    6 ar
     2    1    2 ar
     3    1   29 1
     4    2    3 ar
     5    2   30 1
     6    3    4 ar
     7    3   31 1
     8    4    5 ar
     9    4    7 1
    10    5    6 ar
    11    5   32 1
    12    6   33 1
    13    7    8 1
    14    7   34 1
    15    7   35 1
    16    8   13 ar
    17    8    9 ar
    18    9   10 ar
    19    9   36 1
    20   10   11 ar
    21   10   37 1
    22   11   12 ar
    23   11   14 1
    24   12   13 ar
    25   12   38 1
    26   13   39 1
    27   14   15 1
    28   15   16 1
    29   15   40 1
    30   15   41 1
    31   16   21 1
    32   16   17 1
    33   16   42 1
    34   17   18 1
    35   17   43 1
    36   17   44 1
    37   18   19 1
    38   18   22 1
    39   19   20 1
    40   19   45 1
    41   19   46 1
    42   20   21 1
    43   20   47 1
    44   20   48 1
    45   21   49 1
    46   21   57 1
    47   22   23 1
    48   22   50 1
    49   22   51 1
    50   23   28 ar
    51   23   24 ar
    52   24   25 ar
    53   24   52 1
    54   25   26 ar
    55   25   53 1
    56   26   27 ar
    57   26   54 1
    58   27   28 ar
    59   27   55 1
    60   28   56 1
@<TRIPOS>MOLECULE
CHEMBL1098819__1
   56    59     0     0     0
SMALL
USER_CHARGES

@<TRIPOS>ATOM
      1 C1         -0.0167    1.3781    0.0096 C.ar      1 <0>        -0.1252
      2 C2          1.1709    2.0855    0.0021 C.ar      1 <0>        -0.1178
      3 C3          2.3773    1.4107   -0.0130 C.ar      1 <0>        -0.1153
      4 C4          2.3960    0.0285   -0.0201 C.ar      1 <0>        -0.0750
      5 C5          1.2084   -0.6789   -0.0117 C.ar      1 <0>        -0.1157
      6 C6          0.0021   -0.0041    0.0020 C.ar      1 <0>        -0.1182
      7 C7          3.7112   -0.7071   -0.0376 C.3       1 <0>        -0.0378
      8 C8          4.1644   -0.9594    1.3773 C.ar      1 <0>        -0.1179
      9 C9          4.9522   -0.0267    2.0264 C.ar      1 <0>        -0.0739
     10 C10         5.3694   -0.2559    3.3232 C.ar      1 <0>        -0.1506
     11 C11         4.9969   -1.4228    3.9745 C.ar      1 <0>         0.1327
     12 C12         4.2060   -2.3568    3.3213 C.ar      1 <0>        -0.2076
     13 C13         3.7871   -2.1206    2.0262 C.ar      1 <0>        -0.0728
     14 O1          5.4064   -1.6507    5.2502 O.3       1 <0>        -0.3024
     15 C14         4.9849   -2.8733    5.8582 C.3       1 <0>         0.0753
     16 C15         5.5391   -2.9523    7.2821 C.3       1 <0>         0.0941
     17 C16         5.1912   -4.3129    7.8906 C.3       1 <0>         0.0225
     18 N1          3.7303   -4.4577    7.9571 N.3       1 <0>        -0.5287
     19 C17         3.1349   -3.3916    8.7748 C.3       1 <0>         0.0113
     20 C18         3.4828   -2.0311    8.1663 C.3       1 <0>         0.0554
     21 N2          4.9437   -1.8863    8.0998 N.3       1 <0>        -0.6724
     22 C19         3.3554   -5.7836    8.4666 C.3       1 <0>         0.0934
     23 C20         1.8725   -5.9880    8.2920 C.ar      1 <0>        -0.0802
     24 C21         0.9995   -5.6056    9.2932 C.ar      1 <0>        -0.1148
     25 C22        -0.3607   -5.7931    9.1330 C.ar      1 <0>        -0.1201
     26 C23        -0.8478   -6.3625    7.9714 C.ar      1 <0>        -0.1181
     27 C24         0.0252   -6.7440    6.9698 C.ar      1 <0>        -0.1199
     28 C25         1.3850   -6.5526    7.1282 C.ar      1 <0>        -0.0983
     29 H1         -0.9591    1.9053    0.0259 H         1 <0>         0.1203
     30 H2          1.1563    3.1654    0.0076 H         1 <0>         0.1213
     31 H3          3.3051    1.9634   -0.0196 H         1 <0>         0.1205
     32 H4          1.2231   -1.7588   -0.0176 H         1 <0>         0.1194
     33 H5         -0.9258   -0.5567    0.0082 H         1 <0>         0.1207
     34 H6          3.5884   -1.6586   -0.5549 H         1 <0>         0.0803
     35 H7          4.4573   -0.1052   -0.5563 H         1 <0>         0.0813
     36 H8          5.2420    0.8815    1.5189 H         1 <0>         0.1262
     37 H9          5.9853    0.4726    3.8295 H         1 <0>         0.1296
     38 H10         3.9147   -3.2660    3.8262 H         1 <0>         0.1261
     39 H11         3.1678   -2.8454    1.5188 H         1 <0>         0.1211
     40 H12         3.8958   -2.9068    5.8898 H         1 <0>         0.0760
     41 H13         5.3576   -3.7160    5.2759 H         1 <0>         0.0615
     42 H14         6.6220   -2.8305    7.2581 H         1 <0>         0.0991
     43 H15         5.6073   -5.1062    7.2696 H         1 <0>         0.0861
     44 H16         5.6094   -4.3797    8.8950 H         1 <0>         0.0451
     45 H17         2.0520   -3.5132    8.7985 H         1 <0>         0.0875
     46 H18         3.5298   -3.4480    9.7893 H         1 <0>         0.0344
     47 H19         3.0647   -1.9643    7.1619 H         1 <0>         0.0833
     48 H20         3.0667   -1.2378    8.7873 H         1 <0>         0.0829
     49 H21         5.3481   -1.8710    9.0241 H         1 <0>         0.3425
     50 H22         3.8957   -6.5516    7.9132 H         1 <0>         0.0849
     51 H23         3.6094   -5.8515    9.5244 H         1 <0>         0.0438
     52 H24         1.3801   -5.1608   10.2008 H         1 <0>         0.1168
     53 H25        -1.0428   -5.4950    9.9155 H         1 <0>         0.1217
     54 H26        -1.9105   -6.5096    7.8465 H         1 <0>         0.1217
     55 H27        -0.3554   -7.1892    6.0623 H         1 <0>         0.1224
     56 H28         2.0668   -6.8472    6.3441 H         1 <0>         0.1214
@<TRIPOS>BOND
     1    1    6 ar
     2    1    2 ar
     3    1   29 1
     4    2    3 ar
     5    2   30 1
     6    3    4 ar
     7    3   31 1
     8    4    5 ar
     9    4    7 1
    10    5    6 ar
    11    5   32 1
    12    6   33 1
    13    7    8 1
    14    7   34 1
    15    7   35 1
    16    8   13 ar
    17    8    9 ar
    18    9   10 ar
    19    9   36 1
    20   10   11 ar
    21   10   37 1
    22   11   12 ar
    23   11   14 1
    24   12   13 ar
    25   12   38 1
    26   13   39 1
    27   14   15 1
    28   15   16 1
    29   15   40 1
    30   15   41 1
    31   16   21 1
    32   16   17 1
    33   16   42 1
    34   17   18 1
    35   17   43 1
    36   17   44 1
    37   18   19 1
    38   18   22 1
    39   19   20 1
    40   19   45 1
    41   19   46 1
    42   20   21 1
    43   20   47 1
    44   20   48 1
    45   21   49 1
    46   22   23 1
    47   22   50 1
    48   22   51 1
    49   23   28 ar
    50   23   24 ar
    51   24   25 ar
    52   24   52 1
    53   25   26 ar
    54   25   53 1
    55   26   27 ar
    56   26   54 1
    57   27   28 ar
    58   27   55 1
    59   28   56 1
@<TRIPOS>MOLECULE
CHEMBL1098819__2
   57    60     0     0     0
SMALL
USER_CHARGES

@<TRIPOS>ATOM
      1 C1         -0.0167    1.3781    0.0096 C.ar      1 <0>        -0.1217
      2 C2          1.1709    2.0855    0.0021 C.ar      1 <0>        -0.1158
      3 C3          2.3773    1.4107   -0.0130 C.ar      1 <0>        -0.1145
      4 C4          2.3960    0.0285   -0.0201 C.ar      1 <0>        -0.0800
      5 C5          1.2084   -0.6789   -0.0117 C.ar      1 <0>        -0.1168
      6 C6          0.0021   -0.0041    0.0020 C.ar      1 <0>        -0.1183
      7 C7          3.7112   -0.7071   -0.0376 C.3       1 <0>        -0.0425
      8 C8          4.1644   -0.9594    1.3773 C.ar      1 <0>        -0.1002
      9 C9          4.9522   -0.0267    2.0264 C.ar      1 <0>        -0.0697
     10 C10         5.3694   -0.2559    3.3232 C.ar      1 <0>        -0.1385
     11 C11         4.9969   -1.4228    3.9745 C.ar      1 <0>         0.1146
     12 C12         4.2060   -2.3568    3.3213 C.ar      1 <0>        -0.2086
     13 C13         3.7871   -2.1206    2.0262 C.ar      1 <0>        -0.0738
     14 O1          5.4064   -1.6507    5.2502 O.3       1 <0>        -0.2881
     15 C14         4.9849   -2.8733    5.8582 C.3       1 <0>         0.0543
     16 C15         5.5391   -2.9523    7.2821 C.3       1 <0>         0.0691
     17 C16         5.1910   -4.3126    7.8907 C.3       1 <0>        -0.0403
     18 N1          3.7312   -4.4676    7.9408 N.4       1 <0>        -0.3840
     19 C17         3.1534   -3.4104    8.7810 C.3       1 <0>        -0.0548
     20 C18         3.4845   -2.0427    8.1798 C.3       1 <0>         0.0313
     21 N2          4.9437   -1.8861    8.0999 N.3       1 <0>        -0.6605
     22 C19         3.3978   -5.7809    8.5084 C.3       1 <0>         0.0433
     23 C20         1.9067   -5.9907    8.4469 C.ar      1 <0>        -0.1638
     24 C21         1.1076   -5.5847    9.4993 C.ar      1 <0>        -0.0970
     25 C22        -0.2601   -5.7772    9.4429 C.ar      1 <0>        -0.1127
     26 C23        -0.8287   -6.3754    8.3340 C.ar      1 <0>        -0.0823
     27 C24        -0.0298   -6.7806    7.2812 C.ar      1 <0>        -0.1119
     28 C25         1.3375   -6.5842    7.3357 C.ar      1 <0>        -0.0944
     29 H1         -0.9591    1.9053    0.0259 H         1 <0>         0.1226
     30 H2          1.1563    3.1654    0.0076 H         1 <0>         0.1237
     31 H3          3.3051    1.9634   -0.0196 H         1 <0>         0.1215
     32 H4          1.2231   -1.7588   -0.0176 H         1 <0>         0.1184
     33 H5         -0.9258   -0.5567    0.0082 H         1 <0>         0.1217
     34 H6          3.5884   -1.6586   -0.5549 H         1 <0>         0.0835
     35 H7          4.4573   -0.1052   -0.5563 H         1 <0>         0.0857
     36 H8          5.2420    0.8815    1.5189 H         1 <0>         0.1333
     37 H9          5.9853    0.4726    3.8295 H         1 <0>         0.1343
     38 H10         3.9147   -3.2660    3.8262 H         1 <0>         0.1180
     39 H11         3.1678   -2.8454    1.5188 H         1 <0>         0.1255
     40 H12         3.8958   -2.9068    5.8898 H         1 <0>         0.0533
     41 H13         5.3576   -3.7160    5.2759 H         1 <0>         0.0788
     42 H14         6.6220   -2.8306    7.2581 H         1 <0>         0.1443
     43 H15         5.6197   -5.1053    7.2776 H         1 <0>         0.1419
     44 H16         5.5977   -4.3737    8.9001 H         1 <0>         0.1412
     45 H17         2.0714   -3.5343    8.8279 H         1 <0>         0.1388
     46 H18         3.5705   -3.4762    9.7858 H         1 <0>         0.1318
     47 H19         3.0558   -1.9714    7.1801 H         1 <0>         0.0998
     48 H20         3.0685   -1.2576    8.8111 H         1 <0>         0.1286
     49 H21         5.3559   -1.8638    9.0206 H         1 <0>         0.3645
     50 H22         3.8985   -6.5618    7.9361 H         1 <0>         0.1379
     51 H23         3.7281   -5.8226    9.5463 H         1 <0>         0.1364
     52 H24         1.5519   -5.1174   10.3657 H         1 <0>         0.1305
     53 H25        -0.8843   -5.4606   10.2654 H         1 <0>         0.1372
     54 H26        -1.8972   -6.5264    8.2903 H         1 <0>         0.1371
     55 H27        -0.4740   -7.2482    6.4150 H         1 <0>         0.1371
     56 H28         1.9613   -6.8974    6.5116 H         1 <0>         0.1307
     57 H29         3.3537   -4.3993    7.0076 H         1 <0>         0.4196
@<TRIPOS>BOND
     1    1    6 ar
     2    1    2 ar
     3    1   29 1
     4    2    3 ar
     5    2   30 1
     6    3    4 ar
     7    3   31 1
     8    4    5 ar
     9    4    7 1
    10    5    6 ar
    11    5   32 1
    12    6   33 1
    13    7    8 1
    14    7   34 1
    15    7   35 1
    16    8   13 ar
    17    8    9 ar
    18    9   10 ar
    19    9   36 1
    20   10   11 ar
    21   10   37 1
    22   11   12 ar
    23   11   14 1
    24   12   13 ar
    25   12   38 1
    26   13   39 1
    27   14   15 1
    28   15   16 1
    29   15   40 1
    30   15   41 1
    31   16   21 1
    32   16   17 1
    33   16   42 1
    34   17   18 1
    35   17   43 1
    36   17   44 1
    37   18   19 1
    38   18   22 1
    39   18   57 1
    40   19   20 1
    41   19   45 1
    42   19   46 1
    43   20   21 1
    44   20   47 1
    45   20   48 1
    46   21   49 1
    47   22   23 1
    48   22   50 1
    49   22   51 1
    50   23   28 ar
    51   23   24 ar
    52   24   25 ar
    53   24   52 1
    54   25   26 ar
    55   25   53 1
    56   26   27 ar
    57   26   54 1
    58   27   28 ar
    59   27   55 1
    60   28   56 1
@<TRIPOS>MOLECULE
CHEMBL1098819__3
   57    60     0     0     0
SMALL
USER_CHARGES

@<TRIPOS>ATOM
      1 C1         -0.0167    1.3781    0.0096 C.ar      1 <0>        -0.1199
      2 C2          1.1709    2.0855    0.0021 C.ar      1 <0>        -0.1162
      3 C3          2.3773    1.4107   -0.0130 C.ar      1 <0>        -0.1150
      4 C4          2.3960    0.0285   -0.0201 C.ar      1 <0>        -0.0832
      5 C5          1.2084   -0.6789   -0.0117 C.ar      1 <0>        -0.1158
      6 C6          0.0021   -0.0041    0.0020 C.ar      1 <0>        -0.1170
      7 C7          3.7112   -0.7071   -0.0376 C.3       1 <0>        -0.0439
      8 C8          4.1644   -0.9594    1.3773 C.ar      1 <0>        -0.0911
      9 C9          4.9522   -0.0267    2.0264 C.ar      1 <0>        -0.0724
     10 C10         5.3694   -0.2559    3.3232 C.ar      1 <0>        -0.1367
     11 C11         4.9969   -1.4228    3.9745 C.ar      1 <0>         0.1072
     12 C12         4.2060   -2.3568    3.3213 C.ar      1 <0>        -0.1983
     13 C13         3.7871   -2.1206    2.0262 C.ar      1 <0>        -0.0732
     14 O1          5.4064   -1.6507    5.2502 O.3       1 <0>        -0.3273
     15 C14         4.9849   -2.8733    5.8582 C.3       1 <0>         0.0339
     16 C15         5.5391   -2.9523    7.2821 C.3       1 <0>         0.0421
     17 C16         4.9867   -4.1994    7.9759 C.3       1 <0>         0.0329
     18 N1          5.5356   -4.2831    9.3367 N.3       1 <0>        -0.5315
     19 C17         7.0041   -4.3343    9.3049 C.3       1 <0>         0.0169
     20 C18         7.5399   -3.0861    8.6002 C.3       1 <0>        -0.0015
     21 N2          7.0052   -3.0279    7.2333 N.4       1 <0>        -0.5063
     22 C19         4.9841   -5.4387   10.0567 C.3       1 <0>         0.0988
     23 C20         5.3718   -5.3564   11.5106 C.ar      1 <0>        -0.0984
     24 C21         6.5501   -5.9339   11.9455 C.ar      1 <0>        -0.1188
     25 C22         6.9057   -5.8585   13.2792 C.ar      1 <0>        -0.1177
     26 C23         6.0834   -5.2051   14.1779 C.ar      1 <0>        -0.1082
     27 C24         4.9055   -4.6268   13.7429 C.ar      1 <0>        -0.1161
     28 C25         4.5520   -4.6986   12.4085 C.ar      1 <0>        -0.0943
     29 H1         -0.9591    1.9053    0.0259 H         1 <0>         0.1235
     30 H2          1.1563    3.1654    0.0076 H         1 <0>         0.1238
     31 H3          3.3051    1.9634   -0.0196 H         1 <0>         0.1207
     32 H4          1.2231   -1.7588   -0.0176 H         1 <0>         0.1195
     33 H5         -0.9258   -0.5567    0.0082 H         1 <0>         0.1232
     34 H6          3.5884   -1.6586   -0.5549 H         1 <0>         0.0852
     35 H7          4.4573   -0.1052   -0.5563 H         1 <0>         0.0863
     36 H8          5.2420    0.8815    1.5189 H         1 <0>         0.1351
     37 H9          5.9853    0.4726    3.8295 H         1 <0>         0.1333
     38 H10         3.9147   -3.2660    3.8262 H         1 <0>         0.1267
     39 H11         3.1678   -2.8454    1.5188 H         1 <0>         0.1298
     40 H12         3.8958   -2.9068    5.8898 H         1 <0>         0.1105
     41 H13         5.3576   -3.7160    5.2759 H         1 <0>         0.0864
     42 H14         5.2393   -2.0643    7.8384 H         1 <0>         0.1588
     43 H15         3.8996   -4.1366    8.0255 H         1 <0>         0.1277
     44 H16         5.2747   -5.0868    7.4123 H         1 <0>         0.0664
     45 H17         7.3889   -4.3698   10.3241 H         1 <0>         0.1296
     46 H18         7.3254   -5.2239    8.7633 H         1 <0>         0.0631
     47 H19         7.2299   -2.1973    9.1497 H         1 <0>         0.1414
     48 H20         8.6284   -3.1289    8.5629 H         1 <0>         0.1416
     49 H21         7.2825   -3.8562    6.7283 H         1 <0>         0.4231
     50 H22         3.8975   -5.4362    9.9697 H         1 <0>         0.0979
     51 H23         5.3809   -6.3581    9.6263 H         1 <0>         0.0572
     52 H24         7.1926   -6.4444   11.2433 H         1 <0>         0.1177
     53 H25         7.8259   -6.3103   13.6190 H         1 <0>         0.1259
     54 H26         6.3609   -5.1468   15.2200 H         1 <0>         0.1269
     55 H27         4.2629   -4.1167   14.4451 H         1 <0>         0.1272
     56 H28         3.6336   -4.2436   12.0679 H         1 <0>         0.1240
     57 H29         7.3684   -2.2114    6.7648 H         1 <0>         0.4385
@<TRIPOS>BOND
     1    1    6 ar
     2    1    2 ar
     3    1   29 1
     4    2    3 ar
     5    2   30 1
     6    3    4 ar
     7    3   31 1
     8    4    5 ar
     9    4    7 1
    10    5    6 ar
    11    5   32 1
    12    6   33 1
    13    7    8 1
    14    7   34 1
    15    7   35 1
    16    8   13 ar
    17    8    9 ar
    18    9   10 ar
    19    9   36 1
    20   10   11 ar
    21   10   37 1
    22   11   12 ar
    23   11   14 1
    24   12   13 ar
    25   12   38 1
    26   13   39 1
    27   14   15 1
    28   15   16 1
    29   15   40 1
    30   15   41 1
    31   16   21 1
    32   16   17 1
    33   16   42 1
    34   17   18 1
    35   17   43 1
    36   17   44 1
    37   18   19 1
    38   18   22 1
    39   19   20 1
    40   19   45 1
    41   19   46 1
    42   20   21 1
    43   20   47 1
    44   20   48 1
    45   21   49 1
    46   21   57 1
    47   22   23 1
    48   22   50 1
    49   22   51 1
    50   23   28 ar
    51   23   24 ar
    52   24   25 ar
    53   24   52 1
    54   25   26 ar
    55   25   53 1
    56   26   27 ar
    57   26   54 1
    58   27   28 ar
    59   27   55 1
    60   28   56 1
@<TRIPOS>MOLECULE
CHEMBL1098819__4
   57    60     0     0     0
SMALL
USER_CHARGES

@<TRIPOS>ATOM
      1 C1         -0.0167    1.3781    0.0096 C.ar      1 <0>        -0.1220
      2 C2          1.1709    2.0855    0.0021 C.ar      1 <0>        -0.1165
      3 C3          2.3773    1.4107   -0.0130 C.ar      1 <0>        -0.1149
      4 C4          2.3960    0.0285   -0.0201 C.ar      1 <0>        -0.0799
      5 C5          1.2084   -0.6789   -0.0117 C.ar      1 <0>        -0.1163
      6 C6          0.0021   -0.0041    0.0020 C.ar      1 <0>        -0.1179
      7 C7          3.7112   -0.7071   -0.0376 C.3       1 <0>        -0.0419
      8 C8          4.1644   -0.9594    1.3773 C.ar      1 <0>        -0.1018
      9 C9          4.9522   -0.0267    2.0264 C.ar      1 <0>        -0.0715
     10 C10         5.3694   -0.2559    3.3232 C.ar      1 <0>        -0.1406
     11 C11         4.9969   -1.4228    3.9745 C.ar      1 <0>         0.1176
     12 C12         4.2060   -2.3568    3.3213 C.ar      1 <0>        -0.2061
     13 C13         3.7871   -2.1206    2.0262 C.ar      1 <0>        -0.0739
     14 O1          5.4064   -1.6507    5.2502 O.3       1 <0>        -0.2970
     15 C14         4.9849   -2.8733    5.8582 C.3       1 <0>         0.0692
     16 C15         5.5391   -2.9523    7.2821 C.3       1 <0>         0.0716
     17 C16         4.9895   -4.2010    7.9753 C.3       1 <0>        -0.0441
     18 N1          5.5375   -4.2874    9.3353 N.4       1 <0>        -0.3774
     19 C17         7.0014   -4.3870    9.2698 C.3       1 <0>        -0.0556
     20 C18         7.5678   -3.1399    8.5874 C.3       1 <0>         0.0375
     21 N2          7.0061   -3.0279    7.2338 N.3       1 <0>        -0.6628
     22 C19         4.9956   -5.4763   10.0067 C.3       1 <0>         0.0449
     23 C20         5.4599   -5.4992   11.4402 C.ar      1 <0>        -0.1632
     24 C21         6.6445   -6.1291   11.7731 C.ar      1 <0>        -0.0973
     25 C22         7.0703   -6.1501   13.0880 C.ar      1 <0>        -0.1130
     26 C23         6.3119   -5.5407   14.0700 C.ar      1 <0>        -0.0823
     27 C24         5.1277   -4.9100   13.7370 C.ar      1 <0>        -0.1121
     28 C25         4.7040   -4.8853   12.4214 C.ar      1 <0>        -0.0932
     29 H1         -0.9591    1.9053    0.0259 H         1 <0>         0.1223
     30 H2          1.1563    3.1654    0.0076 H         1 <0>         0.1231
     31 H3          3.3051    1.9634   -0.0196 H         1 <0>         0.1210
     32 H4          1.2231   -1.7588   -0.0176 H         1 <0>         0.1191
     33 H5         -0.9258   -0.5567    0.0082 H         1 <0>         0.1220
     34 H6          3.5884   -1.6586   -0.5549 H         1 <0>         0.0833
     35 H7          4.4573   -0.1052   -0.5563 H         1 <0>         0.0848
     36 H8          5.2420    0.8815    1.5189 H         1 <0>         0.1320
     37 H9          5.9853    0.4726    3.8295 H         1 <0>         0.1325
     38 H10         3.9147   -3.2660    3.8262 H         1 <0>         0.1229
     39 H11         3.1678   -2.8454    1.5188 H         1 <0>         0.1257
     40 H12         3.8958   -2.9068    5.8898 H         1 <0>         0.0784
     41 H13         5.3576   -3.7160    5.2759 H         1 <0>         0.0719
     42 H14         5.2387   -2.0648    7.8390 H         1 <0>         0.1195
     43 H15         3.9023   -4.1403    8.0248 H         1 <0>         0.1416
     44 H16         5.2785   -5.0872    7.4102 H         1 <0>         0.1335
     45 H17         7.4059   -4.4642   10.2791 H         1 <0>         0.1397
     46 H18         7.2801   -5.2722    8.6981 H         1 <0>         0.1289
     47 H19         7.3008   -2.2557    9.1662 H         1 <0>         0.1022
     48 H20         8.6530   -3.2204    8.5253 H         1 <0>         0.1277
     49 H21         7.3097   -3.7941    6.6518 H         1 <0>         0.3594
     50 H22         3.9064   -5.4450    9.9780 H         1 <0>         0.1378
     51 H23         5.3468   -6.3733    9.4967 H         1 <0>         0.1346
     52 H24         7.2370   -6.6052   11.0059 H         1 <0>         0.1300
     53 H25         7.9955   -6.6428   13.3482 H         1 <0>         0.1369
     54 H26         6.6443   -5.5577   15.0974 H         1 <0>         0.1370
     55 H27         4.5350   -4.4342   14.5042 H         1 <0>         0.1371
     56 H28         3.7807   -4.3893   12.1606 H         1 <0>         0.1313
     57 H29         5.2796   -3.4616    9.8547 H         1 <0>         0.4244
@<TRIPOS>BOND
     1    1    6 ar
     2    1    2 ar
     3    1   29 1
     4    2    3 ar
     5    2   30 1
     6    3    4 ar
     7    3   31 1
     8    4    5 ar
     9    4    7 1
    10    5    6 ar
    11    5   32 1
    12    6   33 1
    13    7    8 1
    14    7   34 1
    15    7   35 1
    16    8   13 ar
    17    8    9 ar
    18    9   10 ar
    19    9   36 1
    20   10   11 ar
    21   10   37 1
    22   11   12 ar
    23   11   14 1
    24   12   13 ar
    25   12   38 1
    26   13   39 1
    27   14   15 1
    28   15   16 1
    29   15   40 1
    30   15   41 1
    31   16   21 1
    32   16   17 1
    33   16   42 1
    34   17   18 1
    35   17   43 1
    36   17   44 1
    37   18   19 1
    38   18   22 1
    39   18   57 1
    40   19   20 1
    41   19   45 1
    42   19   46 1
    43   20   21 1
    44   20   47 1
    45   20   48 1
    46   21   49 1
    47   22   23 1
    48   22   50 1
    49   22   51 1
    50   23   28 ar
    51   23   24 ar
    52   24   25 ar
    53   24   52 1
    54   25   26 ar
    55   25   53 1
    56   26   27 ar
    57   26   54 1
    58   27   28 ar
    59   27   55 1
    60   28   56 1
@<TRIPOS>MOLECULE
CHEMBL1098819__5
   56    59     0     0     0
SMALL
USER_CHARGES

@<TRIPOS>ATOM
      1 C1         -0.0167    1.3781    0.0096 C.ar      1 <0>        -0.1249
      2 C2          1.1709    2.0855    0.0021 C.ar      1 <0>        -0.1177
      3 C3          2.3773    1.4107   -0.0130 C.ar      1 <0>        -0.1151
      4 C4          2.3960    0.0285   -0.0201 C.ar      1 <0>        -0.0757
      5 C5          1.2084   -0.6789   -0.0117 C.ar      1 <0>        -0.1160
      6 C6          0.0021   -0.0041    0.0020 C.ar      1 <0>        -0.1183
      7 C7          3.7112   -0.7071   -0.0376 C.3       1 <0>        -0.0382
      8 C8          4.1644   -0.9594    1.3773 C.ar      1 <0>        -0.1160
      9 C9          4.9522   -0.0267    2.0264 C.ar      1 <0>        -0.0731
     10 C10         5.3694   -0.2559    3.3232 C.ar      1 <0>        -0.1479
     11 C11         4.9969   -1.4228    3.9745 C.ar      1 <0>         0.1301
     12 C12         4.2060   -2.3568    3.3213 C.ar      1 <0>        -0.2091
     13 C13         3.7871   -2.1206    2.0262 C.ar      1 <0>        -0.0732
     14 O1          5.4064   -1.6507    5.2502 O.3       1 <0>        -0.2961
     15 C14         4.9849   -2.8733    5.8582 C.3       1 <0>         0.0699
     16 C15         5.5391   -2.9523    7.2821 C.3       1 <0>         0.0939
     17 C16         4.9891   -4.2011    7.9754 C.3       1 <0>         0.0249
     18 N1          5.5536   -4.2953    9.3290 N.3       1 <0>        -0.5258
     19 C17         7.0204   -4.3708    9.2807 C.3       1 <0>         0.0106
     20 C18         7.5703   -3.1221    8.5874 C.3       1 <0>         0.0611
     21 N2          7.0059   -3.0279    7.2338 N.3       1 <0>        -0.6726
     22 C19         4.9910   -5.4415   10.0554 C.3       1 <0>         0.0943
     23 C20         5.3985   -5.3671   11.5043 C.ar      1 <0>        -0.0807
     24 C21         6.5718   -5.9654   11.9240 C.ar      1 <0>        -0.1149
     25 C22         6.9456   -5.8971   13.2531 C.ar      1 <0>        -0.1204
     26 C23         6.1462   -5.2301   14.1625 C.ar      1 <0>        -0.1181
     27 C24         4.9732   -4.6310   13.7427 C.ar      1 <0>        -0.1199
     28 C25         4.6017   -4.6956   12.4128 C.ar      1 <0>        -0.0975
     29 H1         -0.9591    1.9053    0.0259 H         1 <0>         0.1206
     30 H2          1.1563    3.1654    0.0076 H         1 <0>         0.1216
     31 H3          3.3051    1.9634   -0.0196 H         1 <0>         0.1207
     32 H4          1.2231   -1.7588   -0.0176 H         1 <0>         0.1194
     33 H5         -0.9258   -0.5567    0.0082 H         1 <0>         0.1209
     34 H6          3.5884   -1.6586   -0.5549 H         1 <0>         0.0807
     35 H7          4.4573   -0.1052   -0.5563 H         1 <0>         0.0819
     36 H8          5.2420    0.8815    1.5189 H         1 <0>         0.1274
     37 H9          5.9853    0.4726    3.8295 H         1 <0>         0.1311
     38 H10         3.9147   -3.2660    3.8262 H         1 <0>         0.1247
     39 H11         3.1678   -2.8454    1.5188 H         1 <0>         0.1220
     40 H12         3.8958   -2.9068    5.8898 H         1 <0>         0.0685
     41 H13         5.3576   -3.7160    5.2759 H         1 <0>         0.0607
     42 H14         5.2388   -2.0648    7.8390 H         1 <0>         0.1031
     43 H15         3.9030   -4.1336    8.0382 H         1 <0>         0.0856
     44 H16         5.2663   -5.0865    7.4034 H         1 <0>         0.0373
     45 H17         7.4152   -4.4271   10.2952 H         1 <0>         0.0885
     46 H18         7.3207   -5.2582    8.7235 H         1 <0>         0.0329
     47 H19         7.2931   -2.2367    9.1594 H         1 <0>         0.0844
     48 H20         8.6564   -3.1896    8.5246 H         1 <0>         0.0835
     49 H21         7.3095   -3.8010    6.6608 H         1 <0>         0.3372
     50 H22         3.9037   -5.4199    9.9821 H         1 <0>         0.0851
     51 H23         5.3662   -6.3675    9.6196 H         1 <0>         0.0433
     52 H24         7.1964   -6.4865   11.2135 H         1 <0>         0.1168
     53 H25         7.8619   -6.3651   13.5811 H         1 <0>         0.1218
     54 H26         6.4378   -5.1773   15.2010 H         1 <0>         0.1219
     55 H27         4.3485   -4.1102   14.4532 H         1 <0>         0.1228
     56 H28         3.6872   -4.2244   12.0841 H         1 <0>         0.1221
@<TRIPOS>BOND
     1    1    6 ar
     2    1    2 ar
     3    1   29 1
     4    2    3 ar
     5    2   30 1
     6    3    4 ar
     7    3   31 1
     8    4    5 ar
     9    4    7 1
    10    5    6 ar
    11    5   32 1
    12    6   33 1
    13    7    8 1
    14    7   34 1
    15    7   35 1
    16    8   13 ar
    17    8    9 ar
    18    9   10 ar
    19    9   36 1
    20   10   11 ar
    21   10   37 1
    22   11   12 ar
    23   11   14 1
    24   12   13 ar
    25   12   38 1
    26   13   39 1
    27   14   15 1
    28   15   16 1
    29   15   40 1
    30   15   41 1
    31   16   21 1
    32   16   17 1
    33   16   42 1
    34   17   18 1
    35   17   43 1
    36   17   44 1
    37   18   19 1
    38   18   22 1
    39   19   20 1
    40   19   45 1
    41   19   46 1
    42   20   21 1
    43   20   47 1
    44   20   48 1
    45   21   49 1
    46   22   23 1
    47   22   50 1
    48   22   51 1
    49   23   28 ar
    50   23   24 ar
    51   24   25 ar
    52   24   52 1
    53   25   26 ar
    54   25   53 1
    55   26   27 ar
    56   26   54 1
    57   27   28 ar
    58   27   55 1
    59   28   56 1
@<TRIPOS>MOLECULE
CHEMBL1098820
   44    46     0     0     0
SMALL
USER_CHARGES

@<TRIPOS>ATOM
      1 C1         -0.0167    1.3781    0.0096 C.ar      1 <0>        -0.1215
      2 C2          1.1709    2.0855    0.0021 C.ar      1 <0>        -0.1165
      3 C3          2.3773    1.4107   -0.0130 C.ar      1 <0>        -0.1150
      4 C4          2.3960    0.0285   -0.0201 C.ar      1 <0>        -0.0806
      5 C5          1.2084   -0.6789   -0.0117 C.ar      1 <0>        -0.1160
      6 C6          0.0021   -0.0041    0.0020 C.ar      1 <0>        -0.1175
      7 C7          3.7112   -0.7071   -0.0376 C.3       1 <0>        -0.0424
      8 C8          4.1644   -0.9594    1.3773 C.ar      1 <0>        -0.0992
      9 C9          4.9522   -0.0267    2.0264 C.ar      1 <0>        -0.0720
     10 C10         5.3694   -0.2559    3.3232 C.ar      1 <0>        -0.1416
     11 C11         4.9969   -1.4228    3.9745 C.ar      1 <0>         0.1174
     12 C12         4.2060   -2.3568    3.3213 C.ar      1 <0>        -0.2017
     13 C13         3.7871   -2.1206    2.0262 C.ar      1 <0>        -0.0735
     14 O1          5.4064   -1.6507    5.2502 O.3       1 <0>        -0.3167
     15 C14         4.9849   -2.8733    5.8582 C.3       1 <0>         0.0656
     16 C15         5.5391   -2.9523    7.2821 C.3       1 <0>         0.0648
     17 C16         5.1910   -4.3126    7.8907 C.3       1 <0>        -0.0007
     18 N1          5.7057   -4.3805    9.2647 N.4       1 <0>        -0.5047
     19 C17         5.0836   -3.3253   10.0752 C.3       1 <0>        -0.0062
     20 C18         5.4308   -1.9569    9.4848 C.3       1 <0>         0.0272
     21 N2          4.9437   -1.8861    8.0999 N.3       1 <0>        -0.6830
     22 H1         -0.9591    1.9053    0.0259 H         1 <0>         0.1226
     23 H2          1.1563    3.1654    0.0076 H         1 <0>         0.1232
     24 H3          3.3051    1.9634   -0.0196 H         1 <0>         0.1208
     25 H4          1.2231   -1.7588   -0.0176 H         1 <0>         0.1193
     26 H5         -0.9258   -0.5567    0.0082 H         1 <0>         0.1224
     27 H6          3.5884   -1.6586   -0.5549 H         1 <0>         0.0839
     28 H7          4.4573   -0.1052   -0.5563 H         1 <0>         0.0851
     29 H8          5.2420    0.8815    1.5189 H         1 <0>         0.1327
     30 H9          5.9853    0.4726    3.8295 H         1 <0>         0.1315
     31 H10         3.9147   -3.2660    3.8262 H         1 <0>         0.1248
     32 H11         3.1678   -2.8454    1.5188 H         1 <0>         0.1272
     33 H12         3.8958   -2.9068    5.8898 H         1 <0>         0.0831
     34 H13         5.3576   -3.7160    5.2759 H         1 <0>         0.0784
     35 H14         6.6220   -2.8306    7.2581 H         1 <0>         0.0771
     36 H15         4.1085   -4.4394    7.9015 H         1 <0>         0.1437
     37 H16         5.6436   -5.1043    7.2936 H         1 <0>         0.1421
     38 H17         5.4869   -5.2821    9.6614 H         1 <0>         0.4371
     39 H18         4.0017   -3.4572   10.0749 H         1 <0>         0.1404
     40 H19         5.4566   -3.3850   11.0977 H         1 <0>         0.1407
     41 H20         4.9570   -1.1743   10.0774 H         1 <0>         0.1269
     42 H21         6.5120   -1.8190    9.4975 H         1 <0>         0.0608
     43 H22         5.1254   -0.9784    7.6986 H         1 <0>         0.3826
     44 H23         6.7064   -4.2515    9.2555 H         1 <0>         0.4278
@<TRIPOS>BOND
     1    1    6 ar
     2    1    2 ar
     3    1   22 1
     4    2    3 ar
     5    2   23 1
     6    3    4 ar
     7    3   24 1
     8    4    5 ar
     9    4    7 1
    10    5    6 ar
    11    5   25 1
    12    6   26 1
    13    7    8 1
    14    7   27 1
    15    7   28 1
    16    8   13 ar
    17    8    9 ar
    18    9   10 ar
    19    9   29 1
    20   10   11 ar
    21   10   30 1
    22   11   12 ar
    23   11   14 1
    24   12   13 ar
    25   12   31 1
    26   13   32 1
    27   14   15 1
    28   15   16 1
    29   15   33 1
    30   15   34 1
    31   16   21 1
    32   16   17 1
    33   16   35 1
    34   17   18 1
    35   17   36 1
    36   17   37 1
    37   18   19 1
    38   18   38 1
    39   18   44 1
    40   19   20 1
    41   19   39 1
    42   19   40 1
    43   20   21 1
    44   20   41 1
    45   20   42 1
    46   21   43 1
@<TRIPOS>MOLECULE
CHEMBL1098820__1
   44    46     0     0     0
SMALL
USER_CHARGES

@<TRIPOS>ATOM
      1 C1         -0.0167    1.3781    0.0096 C.ar      1 <0>        -0.1199
      2 C2          1.1709    2.0855    0.0021 C.ar      1 <0>        -0.1164
      3 C3          2.3773    1.4107   -0.0130 C.ar      1 <0>        -0.1152
      4 C4          2.3960    0.0285   -0.0201 C.ar      1 <0>        -0.0832
      5 C5          1.2084   -0.6789   -0.0117 C.ar      1 <0>        -0.1157
      6 C6          0.0021   -0.0041    0.0020 C.ar      1 <0>        -0.1168
      7 C7          3.7112   -0.7071   -0.0376 C.3       1 <0>        -0.0441
      8 C8          4.1644   -0.9594    1.3773 C.ar      1 <0>        -0.0908
      9 C9          4.9522   -0.0267    2.0264 C.ar      1 <0>        -0.0726
     10 C10         5.3694   -0.2559    3.3232 C.ar      1 <0>        -0.1376
     11 C11         4.9969   -1.4228    3.9745 C.ar      1 <0>         0.1067
     12 C12         4.2060   -2.3568    3.3213 C.ar      1 <0>        -0.1979
     13 C13         3.7871   -2.1206    2.0262 C.ar      1 <0>        -0.0729
     14 O1          5.4064   -1.6507    5.2502 O.3       1 <0>        -0.3285
     15 C14         4.9849   -2.8733    5.8582 C.3       1 <0>         0.0312
     16 C15         5.5391   -2.9523    7.2821 C.3       1 <0>         0.0424
     17 C16         5.1180   -1.7057    8.0632 C.3       1 <0>         0.0344
     18 N1          5.6677   -1.7751    9.4245 N.3       1 <0>        -0.6902
     19 C17         7.1336   -1.8762    9.3910 C.3       1 <0>         0.0257
     20 C18         7.5380   -3.1215    8.5989 C.3       1 <0>        -0.0037
     21 N2          7.0052   -3.0279    7.2333 N.4       1 <0>        -0.5074
     22 H1         -0.9591    1.9053    0.0259 H         1 <0>         0.1235
     23 H2          1.1563    3.1654    0.0076 H         1 <0>         0.1238
     24 H3          3.3051    1.9634   -0.0196 H         1 <0>         0.1206
     25 H4          1.2231   -1.7588   -0.0176 H         1 <0>         0.1197
     26 H5         -0.9258   -0.5567    0.0082 H         1 <0>         0.1234
     27 H6          3.5884   -1.6586   -0.5549 H         1 <0>         0.0855
     28 H7          4.4573   -0.1052   -0.5563 H         1 <0>         0.0863
     29 H8          5.2420    0.8815    1.5189 H         1 <0>         0.1347
     30 H9          5.9853    0.4726    3.8295 H         1 <0>         0.1318
     31 H10         3.9147   -3.2660    3.8262 H         1 <0>         0.1274
     32 H11         3.1678   -2.8454    1.5188 H         1 <0>         0.1301
     33 H12         3.8958   -2.9068    5.8898 H         1 <0>         0.1111
     34 H13         5.3576   -3.7160    5.2759 H         1 <0>         0.0907
     35 H14         5.1457   -3.8407    7.7762 H         1 <0>         0.1635
     36 H15         5.4996   -0.8162    7.5619 H         1 <0>         0.0708
     37 H16         4.0302   -1.6574    8.1123 H         1 <0>         0.1233
     38 H17         5.3724   -0.9825    9.9746 H         1 <0>         0.3774
     39 H18         7.5484   -0.9896    8.9115 H         1 <0>         0.0605
     40 H19         7.5162   -1.9524   10.4088 H         1 <0>         0.1257
     41 H20         8.6252   -3.1906    8.5608 H         1 <0>         0.1406
     42 H21         7.1345   -4.0091    9.0863 H         1 <0>         0.1401
     43 H22         7.2825   -3.8432    6.7077 H         1 <0>         0.4312
     44 H23         7.3697   -2.2000    6.7863 H         1 <0>         0.4307
@<TRIPOS>BOND
     1    1    6 ar
     2    1    2 ar
     3    1   22 1
     4    2    3 ar
     5    2   23 1
     6    3    4 ar
     7    3   24 1
     8    4    5 ar
     9    4    7 1
    10    5    6 ar
    11    5   25 1
    12    6   26 1
    13    7    8 1
    14    7   27 1
    15    7   28 1
    16    8   13 ar
    17    8    9 ar
    18    9   10 ar
    19    9   29 1
    20   10   11 ar
    21   10   30 1
    22   11   12 ar
    23   11   14 1
    24   12   13 ar
    25   12   31 1
    26   13   32 1
    27   14   15 1
    28   15   16 1
    29   15   33 1
    30   15   34 1
    31   16   21 1
    32   16   17 1
    33   16   35 1
    34   17   18 1
    35   17   36 1
    36   17   37 1
    37   18   19 1
    38   18   38 1
    39   19   20 1
    40   19   39 1
    41   19   40 1
    42   20   21 1
    43   20   41 1
    44   20   42 1
    45   21   43 1
    46   21   44 1
@<TRIPOS>MOLECULE
CHEMBL1098820__2
   44    46     0     0     0
SMALL
USER_CHARGES

@<TRIPOS>ATOM
      1 C1         -0.0167    1.3781    0.0096 C.ar      1 <0>        -0.1218
      2 C2          1.1709    2.0855    0.0021 C.ar      1 <0>        -0.1165
      3 C3          2.3773    1.4107   -0.0130 C.ar      1 <0>        -0.1149
      4 C4          2.3960    0.0285   -0.0201 C.ar      1 <0>        -0.0802
      5 C5          1.2084   -0.6789   -0.0117 C.ar      1 <0>        -0.1163
      6 C6          0.0021   -0.0041    0.0020 C.ar      1 <0>        -0.1178
      7 C7          3.7112   -0.7071   -0.0376 C.3       1 <0>        -0.0421
      8 C8          4.1644   -0.9594    1.3773 C.ar      1 <0>        -0.1010
      9 C9          4.9522   -0.0267    2.0264 C.ar      1 <0>        -0.0715
     10 C10         5.3694   -0.2559    3.3232 C.ar      1 <0>        -0.1403
     11 C11         4.9969   -1.4228    3.9745 C.ar      1 <0>         0.1165
     12 C12         4.2060   -2.3568    3.3213 C.ar      1 <0>        -0.2059
     13 C13         3.7871   -2.1206    2.0262 C.ar      1 <0>        -0.0739
     14 O1          5.4064   -1.6507    5.2502 O.3       1 <0>        -0.2976
     15 C14         4.9849   -2.8733    5.8582 C.3       1 <0>         0.0678
     16 C15         5.5391   -2.9523    7.2821 C.3       1 <0>         0.0693
     17 C16         4.9895   -4.2010    7.9753 C.3       1 <0>        -0.0455
     18 N1          5.5375   -4.2874    9.3353 N.4       1 <0>        -0.5003
     19 C17         7.0014   -4.3870    9.2698 C.3       1 <0>        -0.0523
     20 C18         7.5678   -3.1399    8.5874 C.3       1 <0>         0.0335
     21 N2          7.0061   -3.0279    7.2338 N.3       1 <0>        -0.6646
     22 H1         -0.9591    1.9053    0.0259 H         1 <0>         0.1225
     23 H2          1.1563    3.1654    0.0076 H         1 <0>         0.1232
     24 H3          3.3051    1.9634   -0.0196 H         1 <0>         0.1211
     25 H4          1.2231   -1.7588   -0.0176 H         1 <0>         0.1191
     26 H5         -0.9258   -0.5567    0.0082 H         1 <0>         0.1221
     27 H6          3.5884   -1.6586   -0.5549 H         1 <0>         0.0835
     28 H7          4.4573   -0.1052   -0.5563 H         1 <0>         0.0850
     29 H8          5.2420    0.8815    1.5189 H         1 <0>         0.1324
     30 H9          5.9853    0.4726    3.8295 H         1 <0>         0.1327
     31 H10         3.9147   -3.2660    3.8262 H         1 <0>         0.1228
     32 H11         3.1678   -2.8454    1.5188 H         1 <0>         0.1260
     33 H12         3.8958   -2.9068    5.8898 H         1 <0>         0.0790
     34 H13         5.3576   -3.7160    5.2759 H         1 <0>         0.0719
     35 H14         5.2387   -2.0648    7.8390 H         1 <0>         0.1207
     36 H15         3.9023   -4.1403    8.0248 H         1 <0>         0.1447
     37 H16         5.2785   -5.0872    7.4102 H         1 <0>         0.1352
     38 H17         5.2796   -3.4616    9.8547 H         1 <0>         0.4311
     39 H18         7.4059   -4.4642   10.2791 H         1 <0>         0.1430
     40 H19         7.2801   -5.2722    8.6981 H         1 <0>         0.1314
     41 H20         7.3008   -2.2557    9.1662 H         1 <0>         0.1041
     42 H21         8.6530   -3.2204    8.5253 H         1 <0>         0.1285
     43 H22         7.3097   -3.7941    6.6518 H         1 <0>         0.3604
     44 H23         5.1653   -5.1040    9.7965 H         1 <0>         0.4350
@<TRIPOS>BOND
     1    1    6 ar
     2    1    2 ar
     3    1   22 1
     4    2    3 ar
     5    2   23 1
     6    3    4 ar
     7    3   24 1
     8    4    5 ar
     9    4    7 1
    10    5    6 ar
    11    5   25 1
    12    6   26 1
    13    7    8 1
    14    7   27 1
    15    7   28 1
    16    8   13 ar
    17    8    9 ar
    18    9   10 ar
    19    9   29 1
    20   10   11 ar
    21   10   30 1
    22   11   12 ar
    23   11   14 1
    24   12   13 ar
    25   12   31 1
    26   13   32 1
    27   14   15 1
    28   15   16 1
    29   15   33 1
    30   15   34 1
    31   16   21 1
    32   16   17 1
    33   16   35 1
    34   17   18 1
    35   17   36 1
    36   17   37 1
    37   18   19 1
    38   18   38 1
    39   18   44 1
    40   19   20 1
    41   19   39 1
    42   19   40 1
    43   20   21 1
    44   20   41 1
    45   20   42 1
    46   21   43 1
@<TRIPOS>MOLECULE
CHEMBL1098820__3
   44    46     0     0     0
SMALL
USER_CHARGES

@<TRIPOS>ATOM
      1 C1         -0.0167    1.3781    0.0096 C.ar      1 <0>        -0.1205
      2 C2          1.1709    2.0855    0.0021 C.ar      1 <0>        -0.1165
      3 C3          2.3773    1.4107   -0.0130 C.ar      1 <0>        -0.1151
      4 C4          2.3960    0.0285   -0.0201 C.ar      1 <0>        -0.0822
      5 C5          1.2084   -0.6789   -0.0117 C.ar      1 <0>        -0.1160
      6 C6          0.0021   -0.0041    0.0020 C.ar      1 <0>        -0.1173
      7 C7          3.7112   -0.7071   -0.0376 C.3       1 <0>        -0.0448
      8 C8          4.1644   -0.9594    1.3773 C.ar      1 <0>        -0.0905
      9 C9          4.9522   -0.0267    2.0264 C.ar      1 <0>        -0.0724
     10 C10         5.3694   -0.2559    3.3232 C.ar      1 <0>        -0.1366
     11 C11         4.9969   -1.4228    3.9745 C.ar      1 <0>         0.1068
     12 C12         4.2060   -2.3568    3.3213 C.ar      1 <0>        -0.1983
     13 C13         3.7871   -2.1206    2.0262 C.ar      1 <0>        -0.0732
     14 O1          5.4064   -1.6507    5.2502 O.3       1 <0>        -0.3269
     15 C14         4.9849   -2.8733    5.8582 C.3       1 <0>         0.0357
     16 C15         5.5391   -2.9523    7.2821 C.3       1 <0>        -0.0034
     17 C16         7.0593   -2.7804    7.2480 C.3       1 <0>         0.0412
     18 N1          7.5867   -2.8375    8.6187 N.3       1 <0>        -0.6754
     19 C17         6.9810   -1.7918    9.4551 C.3       1 <0>         0.0316
     20 C18         5.4614   -1.9719    9.4709 C.3       1 <0>        -0.0484
     21 N2          4.9438   -1.8866    8.0990 N.4       1 <0>        -0.5032
     22 H1         -0.9591    1.9053    0.0259 H         1 <0>         0.1233
     23 H2          1.1563    3.1654    0.0076 H         1 <0>         0.1237
     24 H3          3.3051    1.9634   -0.0196 H         1 <0>         0.1210
     25 H4          1.2231   -1.7588   -0.0176 H         1 <0>         0.1197
     26 H5         -0.9258   -0.5567    0.0082 H         1 <0>         0.1231
     27 H6          3.5884   -1.6586   -0.5549 H         1 <0>         0.0858
     28 H7          4.4573   -0.1052   -0.5563 H         1 <0>         0.0869
     29 H8          5.2420    0.8815    1.5189 H         1 <0>         0.1351
     30 H9          5.9853    0.4726    3.8295 H         1 <0>         0.1330
     31 H10         3.9147   -3.2660    3.8262 H         1 <0>         0.1264
     32 H11         3.1678   -2.8454    1.5188 H         1 <0>         0.1298
     33 H12         3.8958   -2.9068    5.8898 H         1 <0>         0.0872
     34 H13         5.3576   -3.7160    5.2759 H         1 <0>         0.1107
     35 H14         5.2928   -3.9221    7.7145 H         1 <0>         0.1541
     36 H15         7.5025   -3.5797    6.6541 H         1 <0>         0.1251
     37 H16         7.3063   -1.8164    6.8032 H         1 <0>         0.1123
     38 H17         7.4449   -3.7511    9.0229 H         1 <0>         0.3606
     39 H18         7.3671   -1.8699   10.4714 H         1 <0>         0.1273
     40 H19         7.2268   -0.8115    9.0466 H         1 <0>         0.1037
     41 H20         5.2155   -2.9467    9.8921 H         1 <0>         0.1313
     42 H21         5.0091   -1.1887   10.0793 H         1 <0>         0.1426
     43 H22         5.1816   -0.9886    7.7052 H         1 <0>         0.4340
     44 H23         3.9405   -1.9930    8.1111 H         1 <0>         0.4287
@<TRIPOS>BOND
     1    1    6 ar
     2    1    2 ar
     3    1   22 1
     4    2    3 ar
     5    2   23 1
     6    3    4 ar
     7    3   24 1
     8    4    5 ar
     9    4    7 1
    10    5    6 ar
    11    5   25 1
    12    6   26 1
    13    7    8 1
    14    7   27 1
    15    7   28 1
    16    8   13 ar
    17    8    9 ar
    18    9   10 ar
    19    9   29 1
    20   10   11 ar
    21   10   30 1
    22   11   12 ar
    23   11   14 1
    24   12   13 ar
    25   12   31 1
    26   13   32 1
    27   14   15 1
    28   15   16 1
    29   15   33 1
    30   15   34 1
    31   16   21 1
    32   16   17 1
    33   16   35 1
    34   17   18 1
    35   17   36 1
    36   17   37 1
    37   18   19 1
    38   18   38 1
    39   19   20 1
    40   19   39 1
    41   19   40 1
    42   20   21 1
    43   20   41 1
    44   20   42 1
    45   21   43 1
    46   21   44 1
@<TRIPOS>MOLECULE
CHEMBL416349
   45    48     0     0     0
SMALL
USER_CHARGES

@<TRIPOS>ATOM
      1 C1         -0.0167    1.3781    0.0096 C.ar      1 <0>        -0.1236
      2 C2          1.1709    2.0855    0.0021 C.ar      1 <0>        -0.1175
      3 C3          2.3773    1.4107   -0.0130 C.ar      1 <0>        -0.1152
      4 C4          2.3960    0.0285   -0.0201 C.ar      1 <0>        -0.0776
      5 C5          1.2084   -0.6789   -0.0117 C.ar      1 <0>        -0.1157
      6 C6          0.0021   -0.0041    0.0020 C.ar      1 <0>        -0.1177
      7 C7          3.7112   -0.7071   -0.0376 C.3       1 <0>        -0.0400
      8 C8          4.1644   -0.9594    1.3773 C.ar      1 <0>        -0.1070
      9 C9          4.9522   -0.0267    2.0264 C.ar      1 <0>        -0.0732
     10 C10         5.3694   -0.2559    3.3232 C.ar      1 <0>        -0.1430
     11 C11         4.9969   -1.4228    3.9745 C.ar      1 <0>         0.1224
     12 C12         4.2060   -2.3568    3.3213 C.ar      1 <0>        -0.2025
     13 C13         3.7871   -2.1206    2.0262 C.ar      1 <0>        -0.0726
     14 O1          5.4064   -1.6507    5.2502 O.3       1 <0>        -0.3104
     15 C14         4.9849   -2.8733    5.8582 C.3       1 <0>         0.0434
     16 C15         5.5391   -2.9523    7.2821 C.3       1 <0>         0.1039
     17 N1          5.1069   -4.2057    7.9054 N.pl3     1 <0>        -0.4704
     18 C16         4.0131   -4.3742    8.7013 C.2       1 <0>         0.2247
     19 N2          3.9330   -5.6166    9.0788 N.2       1 <0>        -0.4417
     20 C17         4.9703   -6.3134    8.5462 C.2       1 <0>        -0.0385
     21 C18         5.7230   -5.4183    7.7899 C.2       1 <0>         0.2614
     22 N3          6.8374   -5.8473    7.1272 N.am      1 <0>        -0.6005
     23 C19         7.2194   -7.1371    7.1935 C.2       1 <0>         0.5442
     24 C20         6.4806   -8.0659    7.9451 C.2       1 <0>        -0.2376
     25 C21         5.3699   -7.6636    8.6223 C.2       1 <0>         0.0400
     26 O2          8.2175   -7.5028    6.5940 O.2       1 <0>        -0.5362
     27 H1         -0.9591    1.9053    0.0259 H         1 <0>         0.1213
     28 H2          1.1563    3.1654    0.0076 H         1 <0>         0.1221
     29 H3          3.3051    1.9634   -0.0196 H         1 <0>         0.1208
     30 H4          1.2231   -1.7588   -0.0176 H         1 <0>         0.1197
     31 H5         -0.9258   -0.5567    0.0082 H         1 <0>         0.1217
     32 H6          3.5884   -1.6586   -0.5549 H         1 <0>         0.0825
     33 H7          4.4573   -0.1052   -0.5563 H         1 <0>         0.0837
     34 H8          5.2420    0.8815    1.5189 H         1 <0>         0.1309
     35 H9          5.9853    0.4726    3.8295 H         1 <0>         0.1329
     36 H10         3.9147   -3.2660    3.8262 H         1 <0>         0.1252
     37 H11         3.1678   -2.8454    1.5188 H         1 <0>         0.1254
     38 H12         3.8958   -2.9068    5.8898 H         1 <0>         0.0766
     39 H13         5.3576   -3.7160    5.2759 H         1 <0>         0.0669
     40 H14         6.6281   -2.9189    7.2505 H         1 <0>         0.1038
     41 H15         5.1664   -2.1096    7.8643 H         1 <0>         0.1226
     42 H16         3.3187   -3.5944    8.9772 H         1 <0>         0.2251
     43 H17         6.7967   -9.0976    7.9904 H         1 <0>         0.1625
     44 H18         4.7958   -8.3721    9.2010 H         1 <0>         0.1487
     45 H19         7.3579   -5.2179    6.6040 H         1 <0>         0.4085
@<TRIPOS>BOND
     1    1    6 ar
     2    1    2 ar
     3    1   27 1
     4    2    3 ar
     5    2   28 1
     6    3    4 ar
     7    3   29 1
     8    4    5 ar
     9    4    7 1
    10    5    6 ar
    11    5   30 1
    12    6   31 1
    13    7    8 1
    14    7   32 1
    15    7   33 1
    16    8   13 ar
    17    8    9 ar
    18    9   10 ar
    19    9   34 1
    20   10   11 ar
    21   10   35 1
    22   11   12 ar
    23   11   14 1
    24   12   13 ar
    25   12   36 1
    26   13   37 1
    27   14   15 1
    28   15   16 1
    29   15   38 1
    30   15   39 1
    31   16   17 1
    32   16   40 1
    33   16   41 1
    34   17   21 1
    35   17   18 1
    36   18   19 2
    37   18   42 1
    38   19   20 1
    39   20   25 1
    40   20   21 2
    41   21   22 1
    42   22   23 am
    43   22   45 1
    44   23   24 1
    45   23   26 2
    46   24   25 2
    47   24   43 1
    48   25   44 1
@<TRIPOS>MOLECULE
CHEMBL1095880
   53    56     0     0     0
SMALL
USER_CHARGES

@<TRIPOS>ATOM
      1 C1         14.7714    1.1084   -0.2516 C.ar      1 <0>        -0.1118
      2 C2         14.0265    1.1033    0.9139 C.ar      1 <0>        -0.1161
      3 C3         12.7965    0.4783    0.9471 C.ar      1 <0>        -0.1073
      4 C4         12.3050   -0.1480   -0.1967 C.ar      1 <0>        -0.0567
      5 C5         13.0596   -0.1394   -1.3683 C.ar      1 <0>        -0.1085
      6 C6         14.2885    0.4883   -1.3899 C.ar      1 <0>        -0.1171
      7 C7         10.9837   -0.8220   -0.1671 C.ar      1 <0>        -0.0352
      8 C8         10.2277   -0.8253    1.0039 C.ar      1 <0>        -0.0945
      9 C9          8.9997   -1.4521    1.0284 C.ar      1 <0>        -0.1132
     10 C10         8.5160   -2.0795   -0.1120 C.ar      1 <0>         0.0771
     11 C11         9.2672   -2.0782   -1.2799 C.ar      1 <0>        -0.1349
     12 C12        10.4934   -1.4480   -1.3119 C.ar      1 <0>        -0.0968
     13 O1          7.3059   -2.6962   -0.0850 O.3       1 <0>        -0.2509
     14 C13         7.2769   -4.0505   -0.2020 C.ar      1 <0>         0.1060
     15 C14         6.0622   -4.7113   -0.3131 C.ar      1 <0>        -0.1042
     16 C15         6.0328   -6.0871   -0.4318 C.ar      1 <0>        -0.1013
     17 C16         7.2178   -6.8080   -0.4395 C.ar      1 <0>         0.0788
     18 C17         8.4324   -6.1474   -0.3280 C.ar      1 <0>        -0.1620
     19 C18         8.4622   -4.7711   -0.2159 C.ar      1 <0>        -0.1549
     20 O2          7.1888   -8.1625   -0.5560 O.3       1 <0>        -0.3243
     21 C19         8.4466   -8.8407   -0.5567 C.3       1 <0>         0.0306
     22 C20         8.2140  -10.3465   -0.6953 C.3       1 <0>         0.0387
     23 H1          9.1657  -10.8704   -0.6068 H         1 <0>         0.1547
     24 C21         7.2674  -10.8196    0.4100 C.3       1 <0>        -0.1401
     25 C22         7.0379  -12.3270    0.2674 C.3       1 <0>        -0.1390
     26 C23         6.4885  -12.6196   -1.1318 C.3       1 <0>        -0.1489
     27 C24         7.4640  -12.0799   -2.1799 C.3       1 <0>        -0.0065
     28 N1          7.6200  -10.6306   -2.0071 N.4       1 <0>        -0.5046
     29 H2         15.7316    1.6023   -0.2742 H         1 <0>         0.1263
     30 H3         14.4083    1.5890    1.7998 H         1 <0>         0.1277
     31 H4         12.2160    0.4742    1.8578 H         1 <0>         0.1264
     32 H5         12.6836   -0.6235   -2.2575 H         1 <0>         0.1248
     33 H6         14.8743    0.4954   -2.2972 H         1 <0>         0.1268
     34 H7         10.6035   -0.3378    1.8913 H         1 <0>         0.1378
     35 H8          8.4136   -1.4553    1.9356 H         1 <0>         0.1373
     36 H9          8.8890   -2.5676   -2.1653 H         1 <0>         0.1315
     37 H10        11.0752   -1.4434   -2.2217 H         1 <0>         0.1347
     38 H11         5.1395   -4.1501   -0.3064 H         1 <0>         0.1469
     39 H12         5.0872   -6.6015   -0.5183 H         1 <0>         0.1420
     40 H13         9.3549   -6.7089   -0.3336 H         1 <0>         0.1305
     41 H14         9.4082   -4.2563   -0.1342 H         1 <0>         0.1378
     42 H15         9.0492   -8.4876   -1.3936 H         1 <0>         0.0861
     43 H16         8.9691   -8.6382    0.3782 H         1 <0>         0.1080
     44 H17         7.7105  -10.6093    1.3834 H         1 <0>         0.1115
     45 H18         6.3151  -10.2965    0.3223 H         1 <0>         0.0987
     46 H19         7.9818  -12.8541    0.4060 H         1 <0>         0.0821
     47 H20         6.3201  -12.6589    1.0176 H         1 <0>         0.0965
     48 H21         6.3750  -13.6960   -1.2604 H         1 <0>         0.1132
     49 H22         5.5201  -12.1339   -1.2515 H         1 <0>         0.0895
     50 H23         8.4319  -12.5664   -2.0594 H         1 <0>         0.1308
     51 H24         7.0760  -12.2867   -3.1773 H         1 <0>         0.1348
     52 H25         6.7164  -10.1858   -2.0695 H         1 <0>         0.4326
     53 H26         8.2211  -10.2695   -2.7327 H         1 <0>         0.4285
@<TRIPOS>BOND
     1    1    6 ar
     2    1    2 ar
     3    1   29 1
     4    2    3 ar
     5    2   30 1
     6    3    4 ar
     7    3   31 1
     8    4    5 ar
     9    4    7 1
    10    5    6 ar
    11    5   32 1
    12    6   33 1
    13    7   12 ar
    14    7    8 ar
    15    8    9 ar
    16    8   34 1
    17    9   10 ar
    18    9   35 1
    19   10   11 ar
    20   10   13 1
    21   11   12 ar
    22   11   36 1
    23   12   37 1
    24   13   14 1
    25   14   19 ar
    26   14   15 ar
    27   15   16 ar
    28   15   38 1
    29   16   17 ar
    30   16   39 1
    31   17   18 ar
    32   17   20 1
    33   18   19 ar
    34   18   40 1
    35   19   41 1
    36   20   21 1
    37   21   22 1
    38   21   42 1
    39   21   43 1
    40   22   23 1
    41   22   28 1
    42   22   24 1
    43   24   25 1
    44   24   44 1
    45   24   45 1
    46   25   26 1
    47   25   46 1
    48   25   47 1
    49   26   27 1
    50   26   48 1
    51   26   49 1
    52   27   28 1
    53   27   50 1
    54   27   51 1
    55   28   52 1
    56   28   53 1
@<TRIPOS>MOLECULE
CHEMBL456045
   60    61     0     0     0
SMALL
USER_CHARGES

@<TRIPOS>ATOM
      1 C1         -0.0187    1.5258    0.0104 C.3       1 <0>        -0.1437
      2 C2          0.0021   -0.0041    0.0020 C.3       1 <0>        -0.0907
      3 H1          0.5123   -0.3556   -0.8948 H         1 <0>         0.1042
      4 C3         -1.4333   -0.5336    0.0129 C.3       1 <0>        -0.0421
      5 S1         -2.2655   -0.0565   -1.5267 S.3       1 <0>        -0.2534
      6 C4          0.7309   -0.5033    1.2229 C.2       1 <0>         0.5217
      7 O1          0.1587   -1.2128    2.0229 O.2       1 <0>        -0.5489
      8 N1          2.0187   -0.1613    1.4257 N.am      1 <0>        -0.6869
      9 C5          2.7273   -0.6466    2.6126 C.3       1 <0>         0.0964
     10 H2          2.3831   -1.6519    2.8555 H         1 <0>         0.0902
     11 C6          4.2311   -0.6761    2.3323 C.3       1 <0>        -0.0722
     12 S2          4.5640   -1.7833    0.9345 S.3       1 <0>        -0.2432
     13 C7          6.3652   -1.7074    0.7338 C.3       1 <0>         0.0044
     14 C8          6.7853   -0.2658    0.4400 C.3       1 <0>        -0.1463
     15 C9          7.0423   -2.1838    2.0204 C.3       1 <0>        -0.1408
     16 C10         6.7810   -2.5950   -0.4110 C.ar      1 <0>        -0.0564
     17 C11         7.4421   -2.0559   -1.4987 C.ar      1 <0>        -0.1074
     18 C12         7.8235   -2.8700   -2.5488 C.ar      1 <0>        -0.1186
     19 C13         7.5441   -4.2233   -2.5109 C.ar      1 <0>        -0.0781
     20 C14         6.8838   -4.7626   -1.4227 C.ar      1 <0>        -0.1136
     21 C15         6.5062   -3.9492   -0.3707 C.ar      1 <0>        -0.0968
     22 C16         7.9590   -5.1107   -3.6561 C.3       1 <0>        -0.0448
     23 C17         6.7200   -5.7705   -4.2648 C.3       1 <0>        -0.1115
     24 C18         7.1412   -6.6715   -5.4275 C.3       1 <0>        -0.1196
     25 C19         8.0951   -7.7525   -4.9153 C.3       1 <0>        -0.1207
     26 C20         9.3341   -7.0927   -4.3066 C.3       1 <0>        -0.1195
     27 C21         8.9129   -6.1918   -3.1439 C.3       1 <0>        -0.1106
     28 C22         2.4507    0.2732    3.7739 C.2       1 <0>         0.4982
     29 O2          2.4475   -0.1653    4.9115 O.co2     1 <0>        -0.6867
     30 O3          2.2303    1.4559    3.5757 O.co2     1 <0>        -0.6813
     31 H3          1.0039    1.9031    0.0027 H         1 <0>         0.0653
     32 H4         -0.5459    1.8868   -0.8726 H         1 <0>         0.0733
     33 H5         -0.5289    1.8773    0.9072 H         1 <0>         0.0648
     34 H6         -1.4190   -1.6203    0.0965 H         1 <0>         0.0914
     35 H7         -1.9701   -0.1109    0.8621 H         1 <0>         0.0909
     36 H8         -3.5017   -0.5714   -1.4015 H         1 <0>         0.0855
     37 H9          2.4764    0.4061    0.7859 H         1 <0>         0.3959
     38 H10         4.5752    0.3292    2.0894 H         1 <0>         0.0837
     39 H11         4.7583   -1.0372    3.2153 H         1 <0>         0.0927
     40 H12         6.4846    0.3761    1.2680 H         1 <0>         0.0631
     41 H13         7.8677   -0.2202    0.3194 H         1 <0>         0.0640
     42 H14         6.3030    0.0736   -0.4766 H         1 <0>         0.0704
     43 H15         6.7430   -3.2108    2.2297 H         1 <0>         0.0683
     44 H16         8.1246   -2.1382    1.8998 H         1 <0>         0.0621
     45 H17         6.7416   -1.5419    2.8484 H         1 <0>         0.0633
     46 H18         7.6603   -0.9986   -1.5283 H         1 <0>         0.1264
     47 H19         8.3394   -2.4487   -3.3989 H         1 <0>         0.1188
     48 H20         6.6653   -5.8198   -1.3933 H         1 <0>         0.1191
     49 H21         5.9937   -4.3711    0.4811 H         1 <0>         0.1260
     50 H22         8.4622   -4.5123   -4.4156 H         1 <0>         0.0750
     51 H23         6.2169   -6.3689   -3.5053 H         1 <0>         0.0645
     52 H24         6.0405   -5.0004   -4.6296 H         1 <0>         0.0637
     53 H25         6.2586   -7.1415   -5.8611 H         1 <0>         0.0615
     54 H26         7.6444   -6.0731   -6.1870 H         1 <0>         0.0607
     55 H27         7.5920   -8.3509   -4.1558 H         1 <0>         0.0614
     56 H28         8.3952   -8.3944   -5.7436 H         1 <0>         0.0590
     57 H29        10.0137   -7.8629   -3.9417 H         1 <0>         0.0607
     58 H30         9.8373   -6.4943   -5.0661 H         1 <0>         0.0607
     59 H31         9.7956   -5.7217   -2.7103 H         1 <0>         0.0621
     60 H32         8.4097   -6.7902   -2.3844 H         1 <0>         0.0642
@<TRIPOS>BOND
     1    1    2 1
     2    1   31 1
     3    1   32 1
     4    1   33 1
     5    2    3 1
     6    2    4 1
     7    2    6 1
     8    4    5 1
     9    4   34 1
    10    4   35 1
    11    5   36 1
    12    6    7 2
    13    6    8 am
    14    8    9 1
    15    8   37 1
    16    9   10 1
    17    9   11 1
    18    9   28 1
    19   11   12 1
    20   11   38 1
    21   11   39 1
    22   12   13 1
    23   13   14 1
    24   13   15 1
    25   13   16 1
    26   14   40 1
    27   14   41 1
    28   14   42 1
    29   15   43 1
    30   15   44 1
    31   15   45 1
    32   16   21 ar
    33   16   17 ar
    34   17   18 ar
    35   17   46 1
    36   18   19 ar
    37   18   47 1
    38   19   20 ar
    39   19   22 1
    40   20   21 ar
    41   20   48 1
    42   21   49 1
    43   22   27 1
    44   22   23 1
    45   22   50 1
    46   23   24 1
    47   23   51 1
    48   23   52 1
    49   24   25 1
    50   24   53 1
    51   24   54 1
    52   25   26 1
    53   25   55 1
    54   25   56 1
    55   26   27 1
    56   26   57 1
    57   26   58 1
    58   27   59 1
    59   27   60 1
    60   28   29 2
    61   28   30 1
@<TRIPOS>MOLECULE
CHEMBL519094
   62    64     0     0     0
SMALL
USER_CHARGES

@<TRIPOS>ATOM
      1 C1          1.7913    1.4096    0.6305 C.3       1 <0>        -0.0556
      2 N1          1.1357    0.1265    0.3447 N.4       1 <0>        -0.3881
      3 C2          1.3784   -0.8053    1.4541 C.3       1 <0>        -0.0068
      4 C3          0.7010   -0.2779    2.7205 C.3       1 <0>        -0.1490
      5 C4          0.9539   -1.2484    3.8760 C.3       1 <0>         0.0593
      6 N2          0.3035   -0.7421    5.0920 N.3       1 <0>        -0.5232
      7 C5          0.9297    0.5081    5.5423 C.3       1 <0>         0.0109
      8 C6          0.3202   -1.7529    6.1578 C.3       1 <0>         0.0372
      9 C7         -0.5604   -1.2997    7.2937 C.2       1 <0>         0.5133
     10 O1         -1.1444   -0.2390    7.2224 O.2       1 <0>        -0.4985
     11 N3         -0.6990   -2.0730    8.3888 N.am      1 <0>        -0.6684
     12 C8         -1.3769   -1.5817    9.5121 C.ar      1 <0>         0.1096
     13 C9         -1.0764   -2.0741   10.7751 C.ar      1 <0>        -0.1098
     14 C10        -1.7449   -1.5896   11.8818 C.ar      1 <0>        -0.1715
     15 C11        -2.7168   -0.6108   11.7320 C.ar      1 <0>         0.1089
     16 C12        -3.0175   -0.1183   10.4702 C.ar      1 <0>        -0.1248
     17 C13        -2.3456   -0.5981    9.3634 C.ar      1 <0>        -0.0964
     18 O2         -3.3750   -0.1343   12.8220 O.3       1 <0>        -0.2587
     19 C14        -2.9270   -0.5049   14.0501 C.ar      1 <0>         0.0825
     20 C15        -1.7931    0.0898   14.5849 C.ar      1 <0>        -0.1328
     21 C16        -1.3398   -0.2887   15.8336 C.ar      1 <0>        -0.1052
     22 C17        -2.0147   -1.2596   16.5504 C.ar      1 <0>        -0.1180
     23 C18        -3.1449   -1.8538   16.0198 C.ar      1 <0>        -0.1047
     24 C19        -3.6060   -1.4745   14.7742 C.ar      1 <0>        -0.1232
     25 C20         1.6827   -0.4370   -0.8968 C.3       1 <0>         0.0994
     26 C21         1.3269    0.4592   -2.0548 C.2       1 <0>        -0.1539
     27 C22         2.0754    1.4901   -2.5086 C.2       1 <0>        -0.1459
     28 C23         1.3882    2.0565   -3.5913 C.2       1 <0>        -0.2080
     29 C24         0.2297    1.3260   -3.7460 C.2       1 <0>         0.0238
     30 O3          0.2221    0.3596   -2.8034 O.3       1 <0>        -0.1431
     31 C25        -0.8031    1.5532   -4.7545 C.2       1 <0>         0.5466
     32 O4         -0.6793    2.4644   -5.5636 O.co2     1 <0>        -0.6381
     33 O5         -1.7928    0.8323   -4.7908 O.co2     1 <0>        -0.6530
     34 H1          2.8638    1.2521    0.7447 H         1 <0>         0.1206
     35 H2          1.6112    2.1010   -0.1926 H         1 <0>         0.1277
     36 H3          1.3854    1.8278    1.5517 H         1 <0>         0.1222
     37 H4          0.9684   -1.7836    1.2032 H         1 <0>         0.1322
     38 H5          2.4511   -0.8941    1.6259 H         1 <0>         0.1285
     39 H6          1.1111    0.7004    2.9714 H         1 <0>         0.0894
     40 H7         -0.3717   -0.1891    2.5487 H         1 <0>         0.0993
     41 H8          0.5438   -2.2267    3.6251 H         1 <0>         0.0874
     42 H9          2.0266   -1.3372    4.0478 H         1 <0>         0.0467
     43 H10         0.8415    1.2613    4.7593 H         1 <0>         0.0710
     44 H11         0.4291    0.8610    6.4439 H         1 <0>         0.0926
     45 H12         1.9832    0.3298    5.7578 H         1 <0>         0.0265
     46 H13        -0.0507   -2.7001    5.7661 H         1 <0>         0.1110
     47 H14         1.3403   -1.8835    6.5187 H         1 <0>         0.0724
     48 H15        -0.3293   -2.9698    8.3992 H         1 <0>         0.4115
     49 H16        -0.3201   -2.8363   10.8918 H         1 <0>         0.1290
     50 H17        -1.5114   -1.9728   12.8642 H         1 <0>         0.1322
     51 H18        -3.7741    0.6436   10.3541 H         1 <0>         0.1373
     52 H19        -2.5766   -0.2115    8.3818 H         1 <0>         0.1641
     53 H20        -1.2652    0.8477   14.0251 H         1 <0>         0.1297
     54 H21        -0.4572    0.1738   16.2503 H         1 <0>         0.1307
     55 H22        -1.6582   -1.5547   17.5262 H         1 <0>         0.1294
     56 H23        -3.6700   -2.6122   16.5816 H         1 <0>         0.1323
     57 H24        -4.4914   -1.9357   14.3621 H         1 <0>         0.1325
     58 H25         2.7671   -0.5118   -0.8150 H         1 <0>         0.1468
     59 H26         1.2616   -1.4287   -1.0621 H         1 <0>         0.1400
     60 H27         3.0251    1.8162   -2.1110 H         1 <0>         0.1515
     61 H28         1.7042    2.9002   -4.1868 H         1 <0>         0.1606
     62 H29         0.1429    0.2723    0.2390 H         1 <0>         0.4298
@<TRIPOS>BOND
     1    1    2 1
     2    1   34 1
     3    1   35 1
     4    1   36 1
     5    2    3 1
     6    2   25 1
     7    2   62 1
     8    3    4 1
     9    3   37 1
    10    3   38 1
    11    4    5 1
    12    4   39 1
    13    4   40 1
    14    5    6 1
    15    5   41 1
    16    5   42 1
    17    6    7 1
    18    6    8 1
    19    7   43 1
    20    7   44 1
    21    7   45 1
    22    8    9 1
    23    8   46 1
    24    8   47 1
    25    9   10 2
    26    9   11 am
    27   11   12 1
    28   11   48 1
    29   12   17 ar
    30   12   13 ar
    31   13   14 ar
    32   13   49 1
    33   14   15 ar
    34   14   50 1
    35   15   16 ar
    36   15   18 1
    37   16   17 ar
    38   16   51 1
    39   17   52 1
    40   18   19 1
    41   19   24 ar
    42   19   20 ar
    43   20   21 ar
    44   20   53 1
    45   21   22 ar
    46   21   54 1
    47   22   23 ar
    48   22   55 1
    49   23   24 ar
    50   23   56 1
    51   24   57 1
    52   25   26 1
    53   25   58 1
    54   25   59 1
    55   26   30 1
    56   26   27 2
    57   27   28 1
    58   27   60 1
    59   28   29 2
    60   28   61 1
    61   29   30 1
    62   29   31 1
    63   31   32 2
    64   31   33 1
@<TRIPOS>MOLECULE
CHEMBL479561
   68    70     0     0     0
SMALL
USER_CHARGES

@<TRIPOS>ATOM
      1 C1          1.9219    1.1971    0.5738 C.3       1 <0>         0.0134
      2 N1          1.2534   -0.0887    0.3331 N.3       1 <0>        -0.5414
      3 C2          1.4594   -1.0082    1.4601 C.3       1 <0>         0.0565
      4 C3          0.7548   -0.4586    2.7020 C.3       1 <0>        -0.1473
      5 C4          0.9693   -1.4162    3.8758 C.3       1 <0>        -0.0091
      6 N2          0.2928   -0.8885    5.0682 N.4       1 <0>        -0.3708
      7 C5          0.9284    0.3722    5.4741 C.3       1 <0>        -0.0636
      8 C6          0.3968   -1.8636    6.1620 C.3       1 <0>        -0.0290
      9 C7         -0.4003   -1.3781    7.3452 C.2       1 <0>         0.5007
     10 O1         -0.9964   -0.3236    7.2834 O.2       1 <0>        -0.5109
     11 N3         -0.4509   -2.1158    8.4721 N.am      1 <0>        -0.6383
     12 C8         -1.0472   -1.5915    9.6263 C.ar      1 <0>         0.0844
     13 C9         -0.6495   -2.0405   10.8787 C.ar      1 <0>        -0.0945
     14 C10        -1.2376   -1.5234   12.0159 C.ar      1 <0>        -0.1724
     15 C11        -2.2257   -0.5554   11.9075 C.ar      1 <0>         0.1263
     16 C12        -2.6234   -0.1063   10.6564 C.ar      1 <0>        -0.1279
     17 C13        -2.0320   -0.6186    9.5186 C.ar      1 <0>        -0.0884
     18 O2         -2.8046   -0.0470   13.0276 O.3       1 <0>        -0.2544
     19 C14        -2.2635   -0.3744   14.2302 C.ar      1 <0>         0.0750
     20 C15        -1.0976    0.2437   14.6592 C.ar      1 <0>        -0.1317
     21 C16        -0.5496   -0.0911   15.8822 C.ar      1 <0>        -0.1045
     22 C17        -1.1616   -1.0416   16.6785 C.ar      1 <0>        -0.1138
     23 C18        -2.3234   -1.6591   16.2534 C.ar      1 <0>        -0.1036
     24 C19        -2.8790   -1.3235   15.0340 C.ar      1 <0>        -0.1210
     25 C20         1.7083   -0.6907   -0.9273 C.3       1 <0>         0.0608
     26 C21         1.2556    0.1802   -2.1010 C.3       1 <0>        -0.0658
     27 C22         1.7222   -0.4373   -3.3941 C.ar      1 <0>        -0.1075
     28 C23         2.9599   -0.0981   -3.9119 C.ar      1 <0>        -0.1346
     29 C24         3.3933   -0.6589   -5.0950 C.ar      1 <0>        -0.0844
     30 C25         2.5796   -1.5719   -5.7707 C.ar      1 <0>        -0.1288
     31 C26         1.3315   -1.9100   -5.2416 C.ar      1 <0>        -0.0845
     32 C27         0.9134   -1.3451   -4.0549 C.ar      1 <0>        -0.1329
     33 C28         3.0360   -2.1758   -7.0372 C.2       1 <0>         0.5159
     34 O3          4.1289   -1.8775   -7.4979 O.co2     1 <0>        -0.6851
     35 O4          2.3215   -2.9745   -7.6262 O.co2     1 <0>        -0.6849
     36 H1          2.9920    1.0323    0.6994 H         1 <0>         0.0299
     37 H2          1.7534    1.8588   -0.2758 H         1 <0>         0.0804
     38 H3          1.5162    1.6541    1.4764 H         1 <0>         0.0631
     39 H4          1.0469   -1.9860    1.2113 H         1 <0>         0.0853
     40 H5          2.5265   -1.1042    1.6604 H         1 <0>         0.0437
     41 H6          1.1672    0.5192    2.9508 H         1 <0>         0.0890
     42 H7         -0.3123   -0.3625    2.5018 H         1 <0>         0.0979
     43 H8          0.5569   -2.3940    3.6270 H         1 <0>         0.1350
     44 H9          2.0364   -1.5123    4.0761 H         1 <0>         0.1321
     45 H10         0.4264    0.7637    6.3589 H         1 <0>         0.1398
     46 H11         1.9790    0.1925    5.7021 H         1 <0>         0.1194
     47 H12         0.8513    1.0957    4.6625 H         1 <0>         0.1288
     48 H13         0.0052   -2.8251    5.8300 H         1 <0>         0.1630
     49 H14         1.4420   -1.9768    6.4498 H         1 <0>         0.1626
     50 H15        -0.0744   -3.0097    8.4839 H         1 <0>         0.4204
     51 H16         0.1193   -2.7942   10.9632 H         1 <0>         0.1335
     52 H17        -0.9286   -1.8728   12.9900 H         1 <0>         0.1377
     53 H18        -3.3925    0.6472   10.5726 H         1 <0>         0.1416
     54 H19        -2.3385   -0.2658    8.5450 H         1 <0>         0.1619
     55 H20        -0.6189    0.9856   14.0374 H         1 <0>         0.1298
     56 H21         0.3578    0.3897   16.2166 H         1 <0>         0.1325
     57 H22        -0.7311   -1.3024   17.6340 H         1 <0>         0.1315
     58 H23        -2.7992   -2.4014   16.8770 H         1 <0>         0.1342
     59 H24        -3.7889   -1.8028   14.7043 H         1 <0>         0.1334
     60 H25         2.7961   -0.7604   -0.9250 H         1 <0>         0.0417
     61 H26         1.2805   -1.6881   -1.0288 H         1 <0>         0.0798
     62 H27         0.1678    0.2499   -2.1034 H         1 <0>         0.0757
     63 H28         1.6834    1.1776   -1.9995 H         1 <0>         0.0671
     64 H29         3.5878    0.6077   -3.3885 H         1 <0>         0.1096
     65 H30         4.3591   -0.3928   -5.4984 H         1 <0>         0.1262
     66 H31         0.6973   -2.6150   -5.7586 H         1 <0>         0.1266
     67 H32        -0.0493   -1.6088   -3.6425 H         1 <0>         0.1121
     68 H33        -0.6797   -0.7222    4.8572 H         1 <0>         0.4330
@<TRIPOS>BOND
     1    1    2 1
     2    1   36 1
     3    1   37 1
     4    1   38 1
     5    2    3 1
     6    2   25 1
     7    3    4 1
     8    3   39 1
     9    3   40 1
    10    4    5 1
    11    4   41 1
    12    4   42 1
    13    5    6 1
    14    5   43 1
    15    5   44 1
    16    6    7 1
    17    6    8 1
    18    6   68 1
    19    7   45 1
    20    7   46 1
    21    7   47 1
    22    8    9 1
    23    8   48 1
    24    8   49 1
    25    9   10 2
    26    9   11 am
    27   11   12 1
    28   11   50 1
    29   12   17 ar
    30   12   13 ar
    31   13   14 ar
    32   13   51 1
    33   14   15 ar
    34   14   52 1
    35   15   16 ar
    36   15   18 1
    37   16   17 ar
    38   16   53 1
    39   17   54 1
    40   18   19 1
    41   19   24 ar
    42   19   20 ar
    43   20   21 ar
    44   20   55 1
    45   21   22 ar
    46   21   56 1
    47   22   23 ar
    48   22   57 1
    49   23   24 ar
    50   23   58 1
    51   24   59 1
    52   25   26 1
    53   25   60 1
    54   25   61 1
    55   26   27 1
    56   26   62 1
    57   26   63 1
    58   27   32 ar
    59   27   28 ar
    60   28   29 ar
    61   28   64 1
    62   29   30 ar
    63   29   65 1
    64   30   31 ar
    65   30   33 1
    66   31   32 ar
    67   31   66 1
    68   32   67 1
    69   33   34 2
    70   33   35 1
@<TRIPOS>MOLECULE
CHEMBL479561__1
   68    70     0     0     0
SMALL
USER_CHARGES

@<TRIPOS>ATOM
      1 C1         -0.3834    1.3939   -1.8667 C.3       1 <0>        -0.0560
      2 N1         -0.2710    0.1157   -1.1515 N.4       1 <0>        -0.3851
      3 C2          0.5916   -0.7974   -1.9131 C.3       1 <0>        -0.0085
      4 C3          2.0134   -0.2344   -1.9615 C.3       1 <0>        -0.1472
      5 C4          2.9119   -1.1854   -2.7547 C.3       1 <0>         0.0575
      6 N2          4.2770   -0.6448   -2.8012 N.3       1 <0>        -0.5230
      7 C5          4.3226    0.6043   -3.5730 C.3       1 <0>         0.0107
      8 C6          5.2168   -1.6342   -3.3450 C.3       1 <0>         0.0363
      9 C7          6.6290   -1.1448   -3.1518 C.2       1 <0>         0.5140
     10 O1          6.8325   -0.0768   -2.6141 O.2       1 <0>        -0.5001
     11 N3          7.6658   -1.8938   -3.5766 N.am      1 <0>        -0.6679
     12 C8          8.9648   -1.3696   -3.5528 C.ar      1 <0>         0.1088
     13 C9          9.9205   -1.8413   -4.4428 C.ar      1 <0>        -0.1091
     14 C10        11.2006   -1.3244   -4.4188 C.ar      1 <0>        -0.1713
     15 C11        11.5321   -0.3337   -3.5056 C.ar      1 <0>         0.1095
     16 C12        10.5775    0.1380   -2.6161 C.ar      1 <0>        -0.1254
     17 C13         9.2955   -0.3742   -2.6429 C.ar      1 <0>        -0.0964
     18 O2         12.7927    0.1746   -3.4822 O.3       1 <0>        -0.2586
     19 C14        13.6415   -0.1782   -4.4829 C.ar      1 <0>         0.0818
     20 C15        13.5229    0.4093   -5.7344 C.ar      1 <0>        -0.1327
     21 C16        14.3871    0.0488   -6.7500 C.ar      1 <0>        -0.1051
     22 C17        15.3693   -0.8970   -6.5205 C.ar      1 <0>        -0.1176
     23 C18        15.4897   -1.4840   -5.2743 C.ar      1 <0>        -0.1046
     24 C19        14.6321   -1.1225   -4.2535 C.ar      1 <0>        -0.1231
     25 C20        -1.6051   -0.4810   -1.0026 C.3       1 <0>        -0.0076
     26 C21        -2.4654    0.4107   -0.1051 C.3       1 <0>        -0.0895
     27 C22        -3.8340   -0.2014    0.0476 C.ar      1 <0>        -0.1282
     28 C23        -4.8363    0.1202   -0.8507 C.ar      1 <0>        -0.1265
     29 C24        -6.0913   -0.4358   -0.7169 C.ar      1 <0>        -0.0838
     30 C25        -6.3494   -1.3261    0.3285 C.ar      1 <0>        -0.1114
     31 C26        -5.3324   -1.6465    1.2314 C.ar      1 <0>        -0.0835
     32 C27        -4.0807   -1.0868    1.0821 C.ar      1 <0>        -0.1262
     33 C28        -7.6895   -1.9247    0.4786 C.2       1 <0>         0.5118
     34 O3         -8.5776   -1.6418   -0.3131 O.co2     1 <0>        -0.6786
     35 O4         -7.9122   -2.7036    1.3947 O.co2     1 <0>        -0.6783
     36 H1          0.6065    1.8366   -1.9772 H         1 <0>         0.1219
     37 H2         -0.8165    1.2220   -2.8521 H         1 <0>         0.1220
     38 H3         -1.0234    2.0714   -1.3016 H         1 <0>         0.1268
     39 H4          0.6038   -1.7740   -1.4292 H         1 <0>         0.1319
     40 H5          0.2065   -0.8995   -2.9277 H         1 <0>         0.1285
     41 H6          2.0012    0.7422   -2.4454 H         1 <0>         0.0887
     42 H7          2.3985   -0.1323   -0.9469 H         1 <0>         0.0976
     43 H8          2.9241   -2.1620   -2.2708 H         1 <0>         0.0876
     44 H9          2.5268   -1.2875   -3.7693 H         1 <0>         0.0475
     45 H10         3.6698    1.3429   -3.1078 H         1 <0>         0.0700
     46 H11         5.3445    0.9829   -3.5915 H         1 <0>         0.0930
     47 H12         3.9872    0.4139   -4.5925 H         1 <0>         0.0271
     48 H13         5.0868   -2.5831   -2.8246 H         1 <0>         0.1112
     49 H14         5.0228   -1.7735   -4.4085 H         1 <0>         0.0733
     50 H15         7.5126   -2.7958   -3.8988 H         1 <0>         0.4119
     51 H16         9.6627   -2.6127   -5.1534 H         1 <0>         0.1294
     52 H17        11.9442   -1.6914   -5.1108 H         1 <0>         0.1326
     53 H18        10.8360    0.9091   -1.9055 H         1 <0>         0.1370
     54 H19         8.5513   -0.0038   -1.9535 H         1 <0>         0.1636
     55 H20        12.7555    1.1475   -5.9144 H         1 <0>         0.1296
     56 H21        14.2952    0.5057   -7.7242 H         1 <0>         0.1309
     57 H22        16.0435   -1.1780   -7.3160 H         1 <0>         0.1296
     58 H23        16.2575   -2.2227   -5.0978 H         1 <0>         0.1325
     59 H24        14.7293   -1.5780   -3.2791 H         1 <0>         0.1325
     60 H25        -2.0743   -0.5710   -1.9824 H         1 <0>         0.1310
     61 H26        -1.5129   -1.4692   -0.5518 H         1 <0>         0.1323
     62 H27        -1.9962    0.5007    0.8746 H         1 <0>         0.0888
     63 H28        -2.5576    1.3989   -0.5559 H         1 <0>         0.0889
     64 H29        -4.6354    0.8086   -1.6583 H         1 <0>         0.1141
     65 H30        -6.8728   -0.1833   -1.4182 H         1 <0>         0.1318
     66 H31        -5.5248   -2.3340    2.0418 H         1 <0>         0.1320
     67 H32        -3.2924   -1.3370    1.7766 H         1 <0>         0.1150
     68 H33         0.1300    0.2748   -0.2394 H         1 <0>         0.4244
@<TRIPOS>BOND
     1    1    2 1
     2    1   36 1
     3    1   37 1
     4    1   38 1
     5    2    3 1
     6    2   25 1
     7    2   68 1
     8    3    4 1
     9    3   39 1
    10    3   40 1
    11    4    5 1
    12    4   41 1
    13    4   42 1
    14    5    6 1
    15    5   43 1
    16    5   44 1
    17    6    7 1
    18    6    8 1
    19    7   45 1
    20    7   46 1
    21    7   47 1
    22    8    9 1
    23    8   48 1
    24    8   49 1
    25    9   10 2
    26    9   11 am
    27   11   12 1
    28   11   50 1
    29   12   17 ar
    30   12   13 ar
    31   13   14 ar
    32   13   51 1
    33   14   15 ar
    34   14   52 1
    35   15   16 ar
    36   15   18 1
    37   16   17 ar
    38   16   53 1
    39   17   54 1
    40   18   19 1
    41   19   24 ar
    42   19   20 ar
    43   20   21 ar
    44   20   55 1
    45   21   22 ar
    46   21   56 1
    47   22   23 ar
    48   22   57 1
    49   23   24 ar
    50   23   58 1
    51   24   59 1
    52   25   26 1
    53   25   60 1
    54   25   61 1
    55   26   27 1
    56   26   62 1
    57   26   63 1
    58   27   32 ar
    59   27   28 ar
    60   28   29 ar
    61   28   64 1
    62   29   30 ar
    63   29   65 1
    64   30   31 ar
    65   30   33 1
    66   31   32 ar
    67   31   66 1
    68   32   67 1
    69   33   34 2
    70   33   35 1
@<TRIPOS>MOLECULE
CHEMBL479561__2
   69    71     0     0     0
SMALL
USER_CHARGES

@<TRIPOS>ATOM
      1 C1         -1.4660    1.1583    1.4014 C.3       1 <0>        -0.0601
      2 N1         -0.9056   -0.1123    0.9224 N.4       1 <0>        -0.3862
      3 C2         -1.9973   -1.0048    0.5108 C.3       1 <0>        -0.0051
      4 C3         -2.7218   -0.4022   -0.6944 C.3       1 <0>        -0.1839
      5 C4         -3.8589   -1.3318   -1.1232 C.3       1 <0>        -0.0052
      6 N2         -4.5546   -0.7531   -2.2804 N.4       1 <0>        -0.3715
      7 C5         -5.2073    0.5013   -1.8824 C.3       1 <0>        -0.0679
      8 C6         -5.5676   -1.6995   -2.7662 C.3       1 <0>        -0.0300
      9 C7         -6.1961   -1.1602   -4.0252 C.2       1 <0>         0.4976
     10 O1         -5.8356   -0.0924   -4.4737 O.2       1 <0>        -0.5144
     11 N3         -7.1588   -1.8642   -4.6529 N.am      1 <0>        -0.6311
     12 C8         -7.8610   -1.2922   -5.7218 C.ar      1 <0>         0.0748
     13 C9         -9.1511   -1.7161   -6.0114 C.ar      1 <0>        -0.0905
     14 C10        -9.8427   -1.1520   -7.0650 C.ar      1 <0>        -0.1721
     15 C11        -9.2487   -0.1617   -7.8342 C.ar      1 <0>         0.1331
     16 C12        -7.9595    0.2623   -7.5452 C.ar      1 <0>        -0.1301
     17 C13        -7.2692   -0.2971   -6.4883 C.ar      1 <0>        -0.0865
     18 O2         -9.9299    0.3931   -8.8717 O.3       1 <0>        -0.2523
     19 C14       -11.2464    0.0854   -9.0077 C.ar      1 <0>         0.0707
     20 C15       -12.1889    0.6844   -8.1841 C.ar      1 <0>        -0.1315
     21 C16       -13.5266    0.3698   -8.3244 C.ar      1 <0>        -0.1042
     22 C17       -13.9267   -0.5415   -9.2843 C.ar      1 <0>        -0.1111
     23 C18       -12.9896   -1.1398  -10.1063 C.ar      1 <0>        -0.1027
     24 C19       -11.6513   -0.8241   -9.9743 C.ar      1 <0>        -0.1199
     25 C20        -0.1357   -0.7456    2.0015 C.3       1 <0>        -0.0093
     26 C21         1.0736    0.1264    2.3448 C.3       1 <0>        -0.0871
     27 C22         1.8634   -0.5232    3.4517 C.ar      1 <0>        -0.1368
     28 C23         1.5643   -0.2349    4.7717 C.ar      1 <0>        -0.1254
     29 C24         2.2831   -0.8254    5.7900 C.ar      1 <0>        -0.0832
     30 C25         3.3150   -1.7169    5.4861 C.ar      1 <0>        -0.1048
     31 C26         3.6110   -2.0036    4.1511 C.ar      1 <0>        -0.0831
     32 C27         2.8804   -1.4096    3.1434 C.ar      1 <0>        -0.1255
     33 C28         4.0888   -2.3522    6.5698 C.2       1 <0>         0.5092
     34 O3          3.8276   -2.0989    7.7373 O.co2     1 <0>        -0.6749
     35 O4          4.9915   -3.1321    6.3006 O.co2     1 <0>        -0.6750
     36 H1         -0.6560    1.8206    1.7068 H         1 <0>         0.1350
     37 H2         -2.0372    1.6282    0.6008 H         1 <0>         0.1176
     38 H3         -2.1208    0.9689    2.2520 H         1 <0>         0.1276
     39 H4         -1.5882   -1.9781    0.2395 H         1 <0>         0.1420
     40 H5         -2.7002   -1.1233    1.3354 H         1 <0>         0.1408
     41 H6         -3.1309    0.5711   -0.4231 H         1 <0>         0.1123
     42 H7         -2.0189   -0.2837   -1.5190 H         1 <0>         0.1125
     43 H8         -3.4498   -2.3050   -1.3945 H         1 <0>         0.1449
     44 H9         -4.5619   -1.4502   -0.2986 H         1 <0>         0.1444
     45 H10        -4.4556    1.2035   -1.5219 H         1 <0>         0.1245
     46 H11        -5.7234    0.9307   -2.7410 H         1 <0>         0.1480
     47 H12        -5.9271    0.3005   -1.0889 H         1 <0>         0.1252
     48 H13        -5.0964   -2.6593   -2.9777 H         1 <0>         0.1657
     49 H14        -6.3360   -1.8320   -2.0045 H         1 <0>         0.1663
     50 H15        -7.3655   -2.7670   -4.3646 H         1 <0>         0.4211
     51 H16        -9.6134   -2.4872   -5.4130 H         1 <0>         0.1342
     52 H17       -10.8460   -1.4819   -7.2906 H         1 <0>         0.1401
     53 H18        -7.4977    1.0332   -8.1442 H         1 <0>         0.1425
     54 H19        -6.2674    0.0362   -6.2607 H         1 <0>         0.1599
     55 H20       -11.8768    1.3957   -7.4337 H         1 <0>         0.1293
     56 H21       -14.2605    0.8357   -7.6836 H         1 <0>         0.1334
     57 H22       -14.9730   -0.7866   -9.3919 H         1 <0>         0.1330
     58 H23       -13.3047   -1.8516  -10.8550 H         1 <0>         0.1356
     59 H24       -10.9202   -1.2884  -10.6196 H         1 <0>         0.1338
     60 H25        -0.7674   -0.8541    2.8831 H         1 <0>         0.1355
     61 H26         0.2056   -1.7282    1.6759 H         1 <0>         0.1359
     62 H27         1.7053    0.2349    1.4631 H         1 <0>         0.0893
     63 H28         0.7323    1.1091    2.6704 H         1 <0>         0.0897
     64 H29         0.7663    0.4545    5.0051 H         1 <0>         0.1137
     65 H30         2.0491   -0.5989    6.8197 H         1 <0>         0.1338
     66 H31         4.4074   -2.6918    3.9089 H         1 <0>         0.1338
     67 H32         3.1051   -1.6336    2.1110 H         1 <0>         0.1140
     68 H33        -3.8882   -0.5672   -3.0149 H         1 <0>         0.4348
     69 H34        -0.2995    0.0630    0.1350 H         1 <0>         0.4263
@<TRIPOS>BOND
     1    1    2 1
     2    1   36 1
     3    1   37 1
     4    1   38 1
     5    2    3 1
     6    2   25 1
     7    2   69 1
     8    3    4 1
     9    3   39 1
    10    3   40 1
    11    4    5 1
    12    4   41 1
    13    4   42 1
    14    5    6 1
    15    5   43 1
    16    5   44 1
    17    6    7 1
    18    6    8 1
    19    6   68 1
    20    7   45 1
    21    7   46 1
    22    7   47 1
    23    8    9 1
    24    8   48 1
    25    8   49 1
    26    9   10 2
    27    9   11 am
    28   11   12 1
    29   11   50 1
    30   12   17 ar
    31   12   13 ar
    32   13   14 ar
    33   13   51 1
    34   14   15 ar
    35   14   52 1
    36   15   16 ar
    37   15   18 1
    38   16   17 ar
    39   16   53 1
    40   17   54 1
    41   18   19 1
    42   19   24 ar
    43   19   20 ar
    44   20   21 ar
    45   20   55 1
    46   21   22 ar
    47   21   56 1
    48   22   23 ar
    49   22   57 1
    50   23   24 ar
    51   23   58 1
    52   24   59 1
    53   25   26 1
    54   25   60 1
    55   25   61 1
    56   26   27 1
    57   26   62 1
    58   26   63 1
    59   27   32 ar
    60   27   28 ar
    61   28   29 ar
    62   28   64 1
    63   29   30 ar
    64   29   65 1
    65   30   31 ar
    66   30   33 1
    67   31   32 ar
    68   31   66 1
    69   32   67 1
    70   33   34 2
    71   33   35 1
@<TRIPOS>MOLECULE
CHEMBL163209
   41    43     0     0     0
SMALL
USER_CHARGES

@<TRIPOS>ATOM
      1 C1         -0.0167    1.3784    0.0096 C.ar      1 <0>        -0.0685
      2 C2          1.1695    2.0865    0.0021 C.ar      1 <0>        -0.1405
      3 C3          2.3802    1.4093   -0.0131 C.ar      1 <0>         0.1128
      4 C4          2.3963    0.0221   -0.0206 C.ar      1 <0>        -0.2008
      5 C5          1.2074   -0.6814   -0.0130 C.ar      1 <0>        -0.0585
      6 C6          0.0021   -0.0041    0.0020 C.ar      1 <0>        -0.1041
      7 C7         -1.2934   -0.7740    0.0107 C.3       1 <0>         0.0087
      8 C8         -1.7392   -1.0230   -1.4071 C.2       1 <0>         0.0506
      9 N1         -1.4604   -2.0424   -2.1806 N.2       1 <0>        -0.5136
     10 C9         -1.9293   -2.1191   -3.4101 C.2       1 <0>         0.0325
     11 C10        -2.7124   -1.0946   -3.8349 C.2       1 <0>        -0.2233
     12 S1         -2.7224   -0.0620   -2.3782 S.3       1 <0>         0.1054
     13 O1          3.5484    2.1036   -0.0209 O.3       1 <0>        -0.3251
     14 C11         4.7565    1.3405   -0.0365 C.3       1 <0>         0.0277
     15 C12         5.9580    2.2878   -0.0434 C.3       1 <0>         0.0013
     16 N2          5.9923    3.0443    1.2153 N.4       1 <0>        -0.3912
     17 C13         4.8165    3.9374    1.2913 C.3       1 <0>        -0.0014
     18 C14         5.3362    5.2166    1.9935 C.3       1 <0>        -0.1457
     19 C15         6.7651    5.3403    1.4022 C.3       1 <0>        -0.1421
     20 C16         7.2129    3.8699    1.2649 C.3       1 <0>        -0.0135
     21 H1         -0.9594    1.9052    0.0259 H         1 <0>         0.1370
     22 H2          1.1543    3.1664    0.0076 H         1 <0>         0.1345
     23 H3          3.3375   -0.5074   -0.0328 H         1 <0>         0.1285
     24 H4          1.2194   -1.7613   -0.0189 H         1 <0>         0.1340
     25 H5         -1.1460   -1.7274    0.5180 H         1 <0>         0.1091
     26 H6         -2.0553   -0.1973    0.5352 H         1 <0>         0.1038
     27 H7         -1.7008   -2.9583   -4.0503 H         1 <0>         0.1746
     28 H8         -3.1977   -0.9470   -4.7884 H         1 <0>         0.1989
     29 H9          4.7979    0.7076    0.8500 H         1 <0>         0.0862
     30 H10         4.7806    0.7165   -0.9299 H         1 <0>         0.1087
     31 H11         6.8762    1.7093   -0.1448 H         1 <0>         0.1491
     32 H12         5.8702    2.9798   -0.8810 H         1 <0>         0.1403
     33 H13         4.4545    4.1741    0.2908 H         1 <0>         0.1374
     34 H14         4.0261    3.4746    1.8822 H         1 <0>         0.1342
     35 H15         4.7279    6.0816    1.7291 H         1 <0>         0.1162
     36 H16         5.3713    5.0818    3.0746 H         1 <0>         0.0970
     37 H17         6.7380    5.8275    0.4275 H         1 <0>         0.0984
     38 H18         7.4198    5.8803    2.0861 H         1 <0>         0.1124
     39 H19         7.8187    3.5849    2.1251 H         1 <0>         0.1326
     40 H20         7.7854    3.7409    0.3463 H         1 <0>         0.1316
     41 H21         5.9824    2.4058    1.9965 H         1 <0>         0.4246
@<TRIPOS>BOND
     1    1    6 ar
     2    1    2 ar
     3    1   21 1
     4    2    3 ar
     5    2   22 1
     6    3    4 ar
     7    3   13 1
     8    4    5 ar
     9    4   23 1
    10    5    6 ar
    11    5   24 1
    12    6    7 1
    13    7    8 1
    14    7   25 1
    15    7   26 1
    16    8   12 1
    17    8    9 2
    18    9   10 1
    19   10   11 2
    20   10   27 1
    21   11   12 1
    22   11   28 1
    23   13   14 1
    24   14   15 1
    25   14   29 1
    26   14   30 1
    27   15   16 1
    28   15   31 1
    29   15   32 1
    30   16   20 1
    31   16   17 1
    32   16   41 1
    33   17   18 1
    34   17   33 1
    35   17   34 1
    36   18   19 1
    37   18   35 1
    38   18   36 1
    39   19   20 1
    40   19   37 1
    41   19   38 1
    42   20   39 1
    43   20   40 1
@<TRIPOS>MOLECULE
CHEMBL163265
   44    46     0     0     0
SMALL
USER_CHARGES

@<TRIPOS>ATOM
      1 C1         -0.0167    1.3776    0.0096 C.ar      1 <0>        -0.1681
      2 C2          1.1849    2.0698    0.0019 C.ar      1 <0>        -0.0708
      3 C3          2.3651    1.3426   -0.0133 C.ar      1 <0>        -0.1341
      4 C4          2.3054   -0.0383   -0.0202 C.ar      1 <0>         0.1034
      5 N1          1.1443   -0.6632   -0.0129 N.ar      1 <0>        -0.4817
      6 C5          0.0021   -0.0041    0.0020 C.ar      1 <0>         0.0971
      7 C6          3.6964    2.0488   -0.0227 C.3       1 <0>        -0.0390
      8 C7          4.1540    2.2771    1.3949 C.ar      1 <0>        -0.0960
      9 C8          3.7975    3.4374    2.0568 C.ar      1 <0>        -0.0723
     10 C9          4.2160    3.6492    3.3562 C.ar      1 <0>        -0.1382
     11 C10         4.9944    2.6962    3.9970 C.ar      1 <0>         0.1093
     12 C11         5.3504    1.5326    3.3308 C.ar      1 <0>        -0.1984
     13 C12         4.9249    1.3232    2.0333 C.ar      1 <0>        -0.0722
     14 O1          5.4078    2.9025    5.2751 O.3       1 <0>        -0.3289
     15 C13         6.2063    1.8786    5.8718 C.3       1 <0>         0.0272
     16 C14         6.5731    2.2855    7.3004 C.3       1 <0>         0.0039
     17 N2          5.3546    2.3541    8.1181 N.4       1 <0>        -0.3958
     18 C15         4.7952    0.9929    8.3189 C.3       1 <0>        -0.0105
     19 C16         3.9246    1.1515    9.5907 C.3       1 <0>        -0.1447
     20 C17         4.7557    2.1232   10.4596 C.3       1 <0>        -0.1450
     21 C18         5.6754    2.8617    9.4697 C.3       1 <0>        -0.0087
     22 H1         -0.9552    1.9117    0.0259 H         1 <0>         0.1377
     23 H2          1.2009    3.1496    0.0072 H         1 <0>         0.1337
     24 H3          3.2203   -0.6121   -0.0320 H         1 <0>         0.1523
     25 H4         -0.9294   -0.5505    0.0083 H         1 <0>         0.1578
     26 H5          4.4293    1.4355   -0.5468 H         1 <0>         0.0901
     27 H6          3.5953    3.0079   -0.5308 H         1 <0>         0.0894
     28 H7          3.1915    4.1790    1.5575 H         1 <0>         0.1349
     29 H8          3.9379    4.5561    3.8726 H         1 <0>         0.1332
     30 H9          5.9563    0.7892    3.8275 H         1 <0>         0.1277
     31 H10         5.1981    0.4155    1.5157 H         1 <0>         0.1315
     32 H11         5.6439    0.9452    5.8929 H         1 <0>         0.0849
     33 H12         7.1166    1.7412    5.2881 H         1 <0>         0.1083
     34 H13         7.2543    1.5479    7.7247 H         1 <0>         0.1487
     35 H14         7.0572    3.2620    7.2871 H         1 <0>         0.1414
     36 H15         4.1820    0.6994    7.4670 H         1 <0>         0.1330
     37 H16         5.5935    0.2699    8.4869 H         1 <0>         0.1351
     38 H17         2.9564    1.5871    9.3434 H         1 <0>         0.0982
     39 H18         3.8001    0.1933   10.0950 H         1 <0>         0.1175
     40 H19         4.1007    2.8310   10.9677 H         1 <0>         0.1057
     41 H20         5.3495    1.5679   11.1856 H         1 <0>         0.1046
     42 H21         6.7189    2.6538    9.7065 H         1 <0>         0.1316
     43 H22         5.4876    3.9343    9.5178 H         1 <0>         0.1329
     44 H23         4.6714    2.9503    7.6756 H         1 <0>         0.4334
@<TRIPOS>BOND
     1    1    6 ar
     2    1    2 ar
     3    1   22 1
     4    2    3 ar
     5    2   23 1
     6    3    4 ar
     7    3    7 1
     8    4    5 ar
     9    4   24 1
    10    5    6 ar
    11    6   25 1
    12    7    8 1
    13    7   26 1
    14    7   27 1
    15    8   13 ar
    16    8    9 ar
    17    9   10 ar
    18    9   28 1
    19   10   11 ar
    20   10   29 1
    21   11   12 ar
    22   11   14 1
    23   12   13 ar
    24   12   30 1
    25   13   31 1
    26   14   15 1
    27   15   16 1
    28   15   32 1
    29   15   33 1
    30   16   17 1
    31   16   34 1
    32   16   35 1
    33   17   21 1
    34   17   18 1
    35   17   44 1
    36   18   19 1
    37   18   36 1
    38   18   37 1
    39   19   20 1
    40   19   38 1
    41   19   39 1
    42   20   21 1
    43   20   40 1
    44   20   41 1
    45   21   42 1
    46   21   43 1
@<TRIPOS>MOLECULE
CHEMBL163266
   47    49     0     0     0
SMALL
USER_CHARGES

@<TRIPOS>ATOM
      1 C1         -0.0167    1.3781    0.0096 C.ar      1 <0>        -0.1231
      2 C2          1.1709    2.0855    0.0021 C.ar      1 <0>        -0.1172
      3 C3          2.3773    1.4107   -0.0130 C.ar      1 <0>        -0.1152
      4 C4          2.3960    0.0285   -0.0201 C.ar      1 <0>        -0.0780
      5 C5          1.2084   -0.6789   -0.0117 C.ar      1 <0>        -0.1161
      6 C6          0.0021   -0.0041    0.0020 C.ar      1 <0>        -0.1180
      7 C7          3.7112   -0.7071   -0.0376 C.3       1 <0>        -0.0422
      8 C8          4.1644   -0.9594    1.3773 C.ar      1 <0>        -0.1051
      9 C9          4.9522   -0.0267    2.0264 C.ar      1 <0>        -0.0726
     10 C10         5.3694   -0.2559    3.3232 C.ar      1 <0>        -0.1456
     11 C11         4.9969   -1.4228    3.9745 C.ar      1 <0>         0.1196
     12 C12         4.2060   -2.3568    3.3213 C.ar      1 <0>        -0.2072
     13 C13         3.7871   -2.1206    2.0262 C.ar      1 <0>        -0.0729
     14 O1          5.4064   -1.6507    5.2502 O.3       1 <0>        -0.3027
     15 C14         4.9849   -2.8733    5.8582 C.3       1 <0>         0.0599
     16 C15         5.5391   -2.9523    7.2821 C.3       1 <0>         0.0566
     17 N1          4.9437   -1.8865    8.0991 N.3       1 <0>        -0.5330
     18 C16         3.5012   -2.1038    8.2784 C.3       1 <0>         0.0175
     19 C17         2.9098   -0.9438    9.0823 C.3       1 <0>        -0.0019
     20 N2          3.5763   -0.8631   10.3887 N.4       1 <0>        -0.5080
     21 C18         5.0120   -0.6215   10.1937 C.3       1 <0>        -0.0025
     22 C19         5.6209   -1.7788    9.3991 C.3       1 <0>         0.0243
     23 H1         -0.9591    1.9053    0.0259 H         1 <0>         0.1219
     24 H2          1.1563    3.1654    0.0076 H         1 <0>         0.1226
     25 H3          3.3051    1.9634   -0.0196 H         1 <0>         0.1208
     26 H4          1.2231   -1.7588   -0.0176 H         1 <0>         0.1196
     27 H5         -0.9258   -0.5567    0.0082 H         1 <0>         0.1219
     28 H6          3.5884   -1.6586   -0.5549 H         1 <0>         0.0833
     29 H7          4.4573   -0.1052   -0.5563 H         1 <0>         0.0844
     30 H8          5.2420    0.8815    1.5189 H         1 <0>         0.1302
     31 H9          5.9853    0.4726    3.8295 H         1 <0>         0.1299
     32 H10         3.9147   -3.2660    3.8262 H         1 <0>         0.1238
     33 H11         3.1678   -2.8454    1.5188 H         1 <0>         0.1249
     34 H12         3.8958   -2.9068    5.8898 H         1 <0>         0.0619
     35 H13         5.3576   -3.7160    5.2759 H         1 <0>         0.0755
     36 H14         5.2928   -3.9221    7.7145 H         1 <0>         0.0696
     37 H15         6.6219   -2.8297    7.2579 H         1 <0>         0.1025
     38 H16         3.0171   -2.1545    7.3032 H         1 <0>         0.1224
     39 H17         3.3381   -3.0385    8.8149 H         1 <0>         0.0622
     40 H18         3.0610   -0.0109    8.5391 H         1 <0>         0.1406
     41 H19         1.8425   -1.1101    9.2286 H         1 <0>         0.1387
     42 H20         3.1776   -0.1060   10.9233 H         1 <0>         0.4347
     43 H21         5.1524    0.3097    9.6448 H         1 <0>         0.1406
     44 H22         5.5033   -0.5488   11.1640 H         1 <0>         0.1393
     45 H23         5.4928   -2.7082    9.9540 H         1 <0>         0.0614
     46 H24         6.6833   -1.5925    9.2414 H         1 <0>         0.1252
     47 H25         3.4461   -1.7310   10.8866 H         1 <0>         0.4256
@<TRIPOS>BOND
     1    1    6 ar
     2    1    2 ar
     3    1   23 1
     4    2    3 ar
     5    2   24 1
     6    3    4 ar
     7    3   25 1
     8    4    5 ar
     9    4    7 1
    10    5    6 ar
    11    5   26 1
    12    6   27 1
    13    7    8 1
    14    7   28 1
    15    7   29 1
    16    8   13 ar
    17    8    9 ar
    18    9   10 ar
    19    9   30 1
    20   10   11 ar
    21   10   31 1
    22   11   12 ar
    23   11   14 1
    24   12   13 ar
    25   12   32 1
    26   13   33 1
    27   14   15 1
    28   15   16 1
    29   15   34 1
    30   15   35 1
    31   16   17 1
    32   16   36 1
    33   16   37 1
    34   17   22 1
    35   17   18 1
    36   18   19 1
    37   18   38 1
    38   18   39 1
    39   19   20 1
    40   19   40 1
    41   19   41 1
    42   20   21 1
    43   20   42 1
    44   20   47 1
    45   21   22 1
    46   21   43 1
    47   21   44 1
    48   22   45 1
    49   22   46 1
@<TRIPOS>MOLECULE
CHEMBL350833
   45    47     0     0     0
SMALL
USER_CHARGES

@<TRIPOS>ATOM
      1 C1          0.4246    1.6580   -0.1405 C.ar      1 <0>        -0.1248
      2 C2          1.6708    2.2560   -0.1590 C.ar      1 <0>        -0.1176
      3 C3          2.8120    1.4759   -0.1480 C.ar      1 <0>        -0.1152
      4 C4          2.7069    0.0978   -0.1180 C.ar      1 <0>        -0.0757
      5 C5          1.4607   -0.5001   -0.0986 C.ar      1 <0>        -0.1159
      6 C6          0.3196    0.2800   -0.1111 C.ar      1 <0>        -0.1182
      7 C7          3.9509   -0.7526   -0.1070 C.3       1 <0>        -0.0382
      8 C8          4.3737   -1.0059    1.3171 C.ar      1 <0>        -0.1165
      9 C9          5.2391   -0.1300    1.9463 C.ar      1 <0>        -0.0731
     10 C10         5.6285   -0.3602    3.2516 C.ar      1 <0>        -0.1492
     11 C11         5.1502   -1.4710    3.9313 C.ar      1 <0>         0.1304
     12 C12         4.2817   -2.3480    3.2979 C.ar      1 <0>        -0.2093
     13 C13         3.8912   -2.1106    1.9943 C.ar      1 <0>        -0.0728
     14 O1          5.5322   -1.6998    5.2153 O.3       1 <0>        -0.2984
     15 C14         5.0003   -2.8628    5.8529 C.3       1 <0>         0.0666
     16 C15         5.5391   -2.9523    7.2821 C.3       1 <0>         0.0545
     17 N1          5.0368   -1.8166    8.0668 N.3       1 <0>        -0.5308
     18 C16         5.8611   -1.5980    9.2643 C.3       1 <0>         0.0186
     19 C17         5.3401   -0.3721   10.0190 C.3       1 <0>         0.0628
     20 O2          3.9601   -0.5670   10.3398 O.3       1 <0>        -0.3852
     21 C18         3.1281   -0.7821    9.1966 C.3       1 <0>         0.0637
     22 C19         3.6267   -2.0122    8.4336 C.3       1 <0>         0.0141
     23 H1         -0.4669    2.2676   -0.1446 H         1 <0>         0.1206
     24 H2          1.7529    3.3326   -0.1824 H         1 <0>         0.1216
     25 H3          3.7856    1.9430   -0.1631 H         1 <0>         0.1206
     26 H4          1.3786   -1.5767   -0.0756 H         1 <0>         0.1194
     27 H5         -0.6541   -0.1872   -0.0963 H         1 <0>         0.1210
     28 H6          3.7457   -1.7031   -0.5996 H         1 <0>         0.0808
     29 H7          4.7502   -0.2341   -0.6366 H         1 <0>         0.0818
     30 H8          5.6111    0.7346    1.4167 H         1 <0>         0.1271
     31 H9          6.3050    0.3238    3.7423 H         1 <0>         0.1300
     32 H10         3.9080   -3.2135    3.8250 H         1 <0>         0.1247
     33 H11         3.2116   -2.7906    1.5022 H         1 <0>         0.1220
     34 H12         3.9125   -2.7980    5.8780 H         1 <0>         0.0618
     35 H13         5.2985   -3.7510    5.2959 H         1 <0>         0.0667
     36 H14         5.2061   -3.8847    7.7382 H         1 <0>         0.0613
     37 H15         6.6286   -2.9265    7.2619 H         1 <0>         0.0885
     38 H16         5.8043   -2.4742    9.9101 H         1 <0>         0.0436
     39 H17         6.8964   -1.4300    8.9678 H         1 <0>         0.0887
     40 H18         5.9121   -0.2399   10.9374 H         1 <0>         0.0995
     41 H19         5.4466    0.5134    9.3925 H         1 <0>         0.0615
     42 H20         2.1003   -0.9465    9.5202 H         1 <0>         0.0989
     43 H21         3.1703    0.0915    8.5462 H         1 <0>         0.0611
     44 H22         3.0310   -2.1466    7.5307 H         1 <0>         0.0847
     45 H23         3.5342   -2.8951    9.0661 H         1 <0>         0.0445
@<TRIPOS>BOND
     1    1    6 ar
     2    1    2 ar
     3    1   23 1
     4    2    3 ar
     5    2   24 1
     6    3    4 ar
     7    3   25 1
     8    4    5 ar
     9    4    7 1
    10    5    6 ar
    11    5   26 1
    12    6   27 1
    13    7    8 1
    14    7   28 1
    15    7   29 1
    16    8   13 ar
    17    8    9 ar
    18    9   10 ar
    19    9   30 1
    20   10   11 ar
    21   10   31 1
    22   11   12 ar
    23   11   14 1
    24   12   13 ar
    25   12   32 1
    26   13   33 1
    27   14   15 1
    28   15   16 1
    29   15   34 1
    30   15   35 1
    31   16   17 1
    32   16   36 1
    33   16   37 1
    34   17   22 1
    35   17   18 1
    36   18   19 1
    37   18   38 1
    38   18   39 1
    39   19   20 1
    40   19   40 1
    41   19   41 1
    42   20   21 1
    43   21   22 1
    44   21   42 1
    45   21   43 1
    46   22   44 1
    47   22   45 1
@<TRIPOS>MOLECULE
CHEMBL350833__1
   46    48     0     0     0
SMALL
USER_CHARGES

@<TRIPOS>ATOM
      1 C1         -0.3120    1.1630    0.1171 C.ar      1 <0>        -0.1205
      2 C2          0.8897    1.8377    0.0090 C.ar      1 <0>        -0.1164
      3 C3          2.0771    1.1315   -0.0383 C.ar      1 <0>        -0.1151
      4 C4          2.0628   -0.2494    0.0229 C.ar      1 <0>        -0.0821
      5 C5          0.8613   -0.9241    0.1318 C.ar      1 <0>        -0.1160
      6 C6         -0.3262   -0.2180    0.1778 C.ar      1 <0>        -0.1172
      7 C7          3.3572   -1.0194   -0.0297 C.3       1 <0>        -0.0448
      8 C8          3.8830   -1.2142    1.3691 C.ar      1 <0>        -0.0906
      9 C9          4.7277   -0.2721    1.9263 C.ar      1 <0>        -0.0721
     10 C10         5.2114   -0.4486    3.2082 C.ar      1 <0>        -0.1374
     11 C11         4.8486   -1.5722    3.9367 C.ar      1 <0>         0.1061
     12 C12         4.0006   -2.5158    3.3754 C.ar      1 <0>        -0.1986
     13 C13         3.5154   -2.3321    2.0950 C.ar      1 <0>        -0.0728
     14 O1          5.3234   -1.7483    5.1978 O.3       1 <0>        -0.3301
     15 C14         4.9080   -2.9283    5.8885 C.3       1 <0>         0.0259
     16 C15         5.5391   -2.9523    7.2821 C.3       1 <0>         0.0001
     17 N1          5.0368   -1.8166    8.0668 N.4       1 <0>        -0.3868
     18 C16         5.7482   -1.7555    9.3510 C.3       1 <0>        -0.0437
     19 C17         5.2232   -0.5713   10.1666 C.3       1 <0>         0.0354
     20 O2          3.8126   -0.7160   10.3538 O.3       1 <0>        -0.3558
     21 C18         3.0774   -0.8041    9.1300 C.3       1 <0>         0.0372
     22 C19         3.5984   -1.9888    8.3125 C.3       1 <0>        -0.0498
     23 H1         -1.2393    1.7149    0.1586 H         1 <0>         0.1233
     24 H2          0.9008    2.9166   -0.0388 H         1 <0>         0.1237
     25 H3          3.0158    1.6586   -0.1235 H         1 <0>         0.1209
     26 H4          0.8501   -2.0030    0.1793 H         1 <0>         0.1197
     27 H5         -1.2650   -0.7451    0.2625 H         1 <0>         0.1231
     28 H6          3.1833   -1.9914   -0.4912 H         1 <0>         0.0859
     29 H7          4.0871   -0.4633   -0.6181 H         1 <0>         0.0869
     30 H8          5.0098    0.6025    1.3589 H         1 <0>         0.1352
     31 H9          5.8717    0.2873    3.6429 H         1 <0>         0.1327
     32 H10         3.7167   -3.3914    3.9404 H         1 <0>         0.1268
     33 H11         2.8517   -3.0642    1.6593 H         1 <0>         0.1302
     34 H12         3.8219   -2.9316    5.9814 H         1 <0>         0.0856
     35 H13         5.2275   -3.8079    5.3297 H         1 <0>         0.1107
     36 H14         5.2775   -3.8843    7.7833 H         1 <0>         0.1505
     37 H15         6.6229   -2.8803    7.1914 H         1 <0>         0.1446
     38 H16         5.5811   -2.6801    9.9036 H         1 <0>         0.1402
     39 H17         6.8154   -1.6277    9.1698 H         1 <0>         0.1441
     40 H18         5.7189   -0.5495   11.1371 H         1 <0>         0.1434
     41 H19         5.4262    0.3570    9.6325 H         1 <0>         0.0818
     42 H20         2.0201   -0.9508    9.3504 H         1 <0>         0.1427
     43 H21         3.2070    0.1162    8.5605 H         1 <0>         0.0818
     44 H22         3.0697   -2.0341    7.3604 H         1 <0>         0.1398
     45 H23         3.4321   -2.9133    8.8655 H         1 <0>         0.1413
     46 H24         5.1907   -0.9603    7.5557 H         1 <0>         0.4302
@<TRIPOS>BOND
     1    1    6 ar
     2    1    2 ar
     3    1   23 1
     4    2    3 ar
     5    2   24 1
     6    3    4 ar
     7    3   25 1
     8    4    5 ar
     9    4    7 1
    10    5    6 ar
    11    5   26 1
    12    6   27 1
    13    7    8 1
    14    7   28 1
    15    7   29 1
    16    8   13 ar
    17    8    9 ar
    18    9   10 ar
    19    9   30 1
    20   10   11 ar
    21   10   31 1
    22   11   12 ar
    23   11   14 1
    24   12   13 ar
    25   12   32 1
    26   13   33 1
    27   14   15 1
    28   15   16 1
    29   15   34 1
    30   15   35 1
    31   16   17 1
    32   16   36 1
    33   16   37 1
    34   17   22 1
    35   17   18 1
    36   17   46 1
    37   18   19 1
    38   18   38 1
    39   18   39 1
    40   19   20 1
    41   19   40 1
    42   19   41 1
    43   20   21 1
    44   21   22 1
    45   21   42 1
    46   21   43 1
    47   22   44 1
    48   22   45 1
@<TRIPOS>MOLECULE
CHEMBL351257
   48    49     0     0     0
SMALL
USER_CHARGES

@<TRIPOS>ATOM
      1 C1         -0.4295    0.7976    0.7098 C.ar      1 <0>        -0.1274
      2 C2          0.6179    1.6696    0.4783 C.ar      1 <0>        -0.1183
      3 C3          1.8924    1.1782    0.2663 C.ar      1 <0>        -0.1201
      4 C4          2.1197   -0.1852    0.2863 C.ar      1 <0>        -0.0757
      5 C5          1.0725   -1.0572    0.5188 C.ar      1 <0>        -0.1159
      6 C6         -0.2023   -0.5658    0.7294 C.ar      1 <0>        -0.1171
      7 C7          3.5090   -0.7210    0.0542 C.3       1 <0>        -0.0716
      8 C8          4.2346   -0.8544    1.3946 C.3       1 <0>        -0.0846
      9 C9          4.4322    0.5334    2.0078 C.3       1 <0>        -0.1302
     10 C10         5.3347    1.3510    1.1201 C.2       1 <0>         0.5162
     11 O1          5.8476    0.8440    0.1451 O.2       1 <0>        -0.4893
     12 N1          5.5717    2.6458    1.4097 N.am      1 <0>        -0.5988
     13 O2          6.4197    3.4141    0.5756 O.3       1 <0>        -0.3177
     14 C11         5.5773   -1.5030    1.1765 C.2       1 <0>         0.5234
     15 O3          5.9201   -1.8267    0.0591 O.2       1 <0>        -0.5245
     16 N2          6.3973   -1.7233    2.2232 N.am      1 <0>        -0.7202
     17 C12         7.7025   -2.3539    2.0112 C.3       1 <0>         0.1497
     18 C13         7.5393   -3.8751    2.0070 C.3       1 <0>        -0.1254
     19 C14         6.9652   -4.3302    3.3502 C.3       1 <0>        -0.1166
     20 C15         7.9175   -3.9226    4.4762 C.3       1 <0>        -0.0912
     21 C16         8.0806   -2.4013    4.4805 C.3       1 <0>        -0.1494
     22 C17         8.6547   -1.9462    3.1373 C.3       1 <0>        -0.1019
     23 C18         9.0185   -1.9998    5.5896 C.2       1 <0>         0.4944
     24 O4          9.5109   -2.8515    6.3099 O.co2     1 <0>        -0.6964
     25 O5          9.2851   -0.8233    5.7666 O.co2     1 <0>        -0.7035
     26 H1         -1.4244    1.1818    0.8799 H         1 <0>         0.1189
     27 H2          0.4403    2.7348    0.4626 H         1 <0>         0.1195
     28 H3          2.7105    1.8594    0.0846 H         1 <0>         0.1174
     29 H4          1.2500   -2.1224    0.5341 H         1 <0>         0.1230
     30 H5         -1.0205   -1.2470    0.9107 H         1 <0>         0.1205
     31 H6          3.4462   -1.6986   -0.4238 H         1 <0>         0.0838
     32 H7          4.0596   -0.0360   -0.5905 H         1 <0>         0.0969
     33 H8          3.6397   -1.4689    2.0703 H         1 <0>         0.1071
     34 H9          3.4666    1.0304    2.1008 H         1 <0>         0.1094
     35 H10         4.8859    0.4336    2.9939 H         1 <0>         0.1072
     36 H11         5.1615    3.0513    2.1895 H         1 <0>         0.4062
     37 H12         6.5292    4.3307    0.8635 H         1 <0>         0.3846
     38 H13         6.1231   -1.4644    3.1169 H         1 <0>         0.3961
     39 H14         8.1115   -2.0296    1.0543 H         1 <0>         0.0813
     40 H15         6.8609   -4.1655    1.2048 H         1 <0>         0.0590
     41 H16         8.5105   -4.3443    1.8492 H         1 <0>         0.0674
     42 H17         5.9941   -3.8611    3.5079 H         1 <0>         0.0529
     43 H18         6.8490   -5.4140    3.3471 H         1 <0>         0.0525
     44 H19         7.5084   -4.2468    5.4331 H         1 <0>         0.0575
     45 H20         8.8886   -4.3917    4.3185 H         1 <0>         0.0599
     46 H21         7.1095   -1.9322    4.6382 H         1 <0>         0.0548
     47 H22         9.6259   -2.4154    2.9795 H         1 <0>         0.0687
     48 H23         8.7710   -0.8624    3.1403 H         1 <0>         0.0675
@<TRIPOS>BOND
     1    1    6 ar
     2    1    2 ar
     3    1   26 1
     4    2    3 ar
     5    2   27 1
     6    3    4 ar
     7    3   28 1
     8    4    5 ar
     9    4    7 1
    10    5    6 ar
    11    5   29 1
    12    6   30 1
    13    7    8 1
    14    7   31 1
    15    7   32 1
    16    8    9 1
    17    8   14 1
    18    8   33 1
    19    9   10 1
    20    9   34 1
    21    9   35 1
    22   10   11 2
    23   10   12 am
    24   12   13 1
    25   12   36 1
    26   13   37 1
    27   14   15 2
    28   14   16 am
    29   16   17 1
    30   16   38 1
    31   17   22 1
    32   17   18 1
    33   17   39 1
    34   18   19 1
    35   18   40 1
    36   18   41 1
    37   19   20 1
    38   19   42 1
    39   19   43 1
    40   20   21 1
    41   20   44 1
    42   20   45 1
    43   21   22 1
    44   21   23 1
    45   21   46 1
    46   22   47 1
    47   22   48 1
    48   23   24 2
    49   23   25 1
@<TRIPOS>MOLECULE
CHEMBL351257__1
   48    49     0     0     0
SMALL
USER_CHARGES

@<TRIPOS>ATOM
      1 C1         -0.4295    0.7976    0.7098 C.ar      1 <0>        -0.1273
      2 C2          0.6179    1.6696    0.4783 C.ar      1 <0>        -0.1182
      3 C3          1.8924    1.1782    0.2663 C.ar      1 <0>        -0.1202
      4 C4          2.1197   -0.1852    0.2863 C.ar      1 <0>        -0.0756
      5 C5          1.0725   -1.0572    0.5188 C.ar      1 <0>        -0.1160
      6 C6         -0.2023   -0.5658    0.7294 C.ar      1 <0>        -0.1171
      7 C7          3.5090   -0.7210    0.0542 C.3       1 <0>        -0.0728
      8 C8          4.2346   -0.8544    1.3946 C.3       1 <0>        -0.0842
      9 C9          4.4322    0.5334    2.0078 C.3       1 <0>        -0.1286
     10 C10         5.3347    1.3510    1.1201 C.2       1 <0>         0.5139
     11 O1          5.8476    0.8440    0.1451 O.2       1 <0>        -0.4869
     12 N1          5.5717    2.6458    1.4097 N.am      1 <0>        -0.5995
     13 O2          6.4197    3.4141    0.5756 O.3       1 <0>        -0.3166
     14 C11         5.5773   -1.5030    1.1765 C.2       1 <0>         0.5220
     15 O3          5.9201   -1.8267    0.0591 O.2       1 <0>        -0.5198
     16 N2          6.3972   -1.7233    2.2232 N.am      1 <0>        -0.7273
     17 C12         7.7025   -2.3539    2.0112 C.3       1 <0>         0.1439
     18 C13         7.5393   -3.8751    2.0070 C.3       1 <0>        -0.1214
     19 C14         8.9025   -4.5337    1.7856 C.3       1 <0>        -0.1147
     20 C15         9.8547   -4.1260    2.9116 C.3       1 <0>        -0.0959
     21 C16        10.0179   -2.6047    2.9159 C.3       1 <0>        -0.1500
     22 C17         8.6547   -1.9462    3.1373 C.3       1 <0>        -0.0907
     23 C18        10.9558   -2.2032    4.0250 C.2       1 <0>         0.4973
     24 O4         12.1007   -2.6223    4.0368 O.co2     1 <0>        -0.7014
     25 O5         10.5698   -1.4593    4.9105 O.co2     1 <0>        -0.7000
     26 H1         -1.4244    1.1818    0.8799 H         1 <0>         0.1190
     27 H2          0.4403    2.7348    0.4626 H         1 <0>         0.1197
     28 H3          2.7105    1.8594    0.0846 H         1 <0>         0.1175
     29 H4          1.2500   -2.1224    0.5341 H         1 <0>         0.1230
     30 H5         -1.0205   -1.2470    0.9107 H         1 <0>         0.1206
     31 H6          3.4462   -1.6986   -0.4238 H         1 <0>         0.0843
     32 H7          4.0596   -0.0360   -0.5905 H         1 <0>         0.0972
     33 H8          3.6397   -1.4689    2.0703 H         1 <0>         0.1073
     34 H9          3.4666    1.0304    2.1008 H         1 <0>         0.1093
     35 H10         4.8859    0.4336    2.9939 H         1 <0>         0.1061
     36 H11         5.1615    3.0513    2.1895 H         1 <0>         0.4053
     37 H12         6.5292    4.3307    0.8635 H         1 <0>         0.3847
     38 H13         6.1231   -1.4644    3.1169 H         1 <0>         0.3933
     39 H14         8.1115   -2.0296    1.0543 H         1 <0>         0.0826
     40 H15         7.1303   -4.1994    2.9639 H         1 <0>         0.0589
     41 H16         6.8609   -4.1655    1.2048 H         1 <0>         0.0580
     42 H17         8.7863   -5.6174    1.7825 H         1 <0>         0.0569
     43 H18         9.3115   -4.2094    0.8287 H         1 <0>         0.0594
     44 H19         9.4457   -4.4502    3.8685 H         1 <0>         0.0530
     45 H20        10.8259   -4.5952    2.7539 H         1 <0>         0.0646
     46 H21        10.4269   -2.2805    1.9590 H         1 <0>         0.0626
     47 H22         8.7710   -0.8624    3.1403 H         1 <0>         0.0613
     48 H23         8.2457   -2.2704    4.0942 H         1 <0>         0.0629
@<TRIPOS>BOND
     1    1    6 ar
     2    1    2 ar
     3    1   26 1
     4    2    3 ar
     5    2   27 1
     6    3    4 ar
     7    3   28 1
     8    4    5 ar
     9    4    7 1
    10    5    6 ar
    11    5   29 1
    12    6   30 1
    13    7    8 1
    14    7   31 1
    15    7   32 1
    16    8    9 1
    17    8   14 1
    18    8   33 1
    19    9   10 1
    20    9   34 1
    21    9   35 1
    22   10   11 2
    23   10   12 am
    24   12   13 1
    25   12   36 1
    26   13   37 1
    27   14   15 2
    28   14   16 am
    29   16   17 1
    30   16   38 1
    31   17   22 1
    32   17   18 1
    33   17   39 1
    34   18   19 1
    35   18   40 1
    36   18   41 1
    37   19   20 1
    38   19   42 1
    39   19   43 1
    40   20   21 1
    41   20   44 1
    42   20   45 1
    43   21   22 1
    44   21   23 1
    45   21   46 1
    46   22   47 1
    47   22   48 1
    48   23   24 2
    49   23   25 1
@<TRIPOS>MOLECULE
CHEMBL351257__2
   48    49     0     0     0
SMALL
USER_CHARGES

@<TRIPOS>ATOM
      1 C1         -0.4286    0.7986    0.7067 C.ar      1 <0>        -0.1272
      2 C2          0.6191    1.6703    0.4755 C.ar      1 <0>        -0.1188
      3 C3          1.8936    1.1785    0.2644 C.ar      1 <0>        -0.1207
      4 C4          2.1206   -0.1849    0.2849 C.ar      1 <0>        -0.0760
      5 C5          1.0731   -1.0566    0.5170 C.ar      1 <0>        -0.1154
      6 C6         -0.2017   -0.5649    0.7267 C.ar      1 <0>        -0.1166
      7 C7          3.5099   -0.7210    0.0538 C.3       1 <0>        -0.0727
      8 C8          4.2347   -0.8544    1.3946 C.3       1 <0>        -0.0851
      9 C9          4.4322    0.5334    2.0078 C.3       1 <0>        -0.1279
     10 C10         5.3347    1.3510    1.1201 C.2       1 <0>         0.5136
     11 O1          5.8476    0.8440    0.1451 O.2       1 <0>        -0.4845
     12 N1          5.5717    2.6458    1.4097 N.am      1 <0>        -0.6006
     13 O2          6.4197    3.4141    0.5756 O.3       1 <0>        -0.3172
     14 C11         5.5774   -1.5034    1.1775 C.2       1 <0>         0.5225
     15 O3          5.9208   -1.8273    0.0603 O.2       1 <0>        -0.5189
     16 N2          6.3966   -1.7237    2.2248 N.am      1 <0>        -0.7283
     17 C12         7.7018   -2.3546    2.0137 C.3       1 <0>         0.1484
     18 C13         8.7270   -1.2877    1.6244 C.3       1 <0>        -0.1200
     19 C14        10.0902   -1.9465    1.4039 C.3       1 <0>        -0.1174
     20 C15        10.5375   -2.6370    2.6939 C.3       1 <0>        -0.0907
     21 C16         9.5123   -3.7039    3.0832 C.3       1 <0>        -0.1496
     22 C17         8.1492   -3.0450    3.3037 C.3       1 <0>        -0.0969
     23 C18         9.9529   -4.3840    4.3539 C.2       1 <0>         0.4964
     24 O4         10.9907   -4.0465    4.8976 O.co2     1 <0>        -0.6971
     25 O5          9.2716   -5.2716    4.8381 O.co2     1 <0>        -0.7031
     26 H1         -1.4236    1.1830    0.8761 H         1 <0>         0.1191
     27 H2          0.4417    2.7355    0.4595 H         1 <0>         0.1193
     28 H3          2.7120    1.8595    0.0831 H         1 <0>         0.1168
     29 H4          1.2504   -2.1218    0.5327 H         1 <0>         0.1238
     30 H5         -1.0201   -1.2459    0.9077 H         1 <0>         0.1210
     31 H6          3.4473   -1.6987   -0.4241 H         1 <0>         0.0850
     32 H7          4.0611   -0.0362   -0.5906 H         1 <0>         0.0968
     33 H8          3.6392   -1.4687    2.0700 H         1 <0>         0.1084
     34 H9          3.4666    1.0303    2.1007 H         1 <0>         0.1095
     35 H10         4.8859    0.4336    2.9939 H         1 <0>         0.1048
     36 H11         5.1615    3.0513    2.1895 H         1 <0>         0.4050
     37 H12         6.5292    4.3307    0.8635 H         1 <0>         0.3842
     38 H13         6.1220   -1.4646    3.1183 H         1 <0>         0.3927
     39 H14         7.6240   -3.0922    1.2150 H         1 <0>         0.0835
     40 H15         8.4083   -0.7958    0.7053 H         1 <0>         0.0625
     41 H16         8.8049   -0.5500    2.4231 H         1 <0>         0.0544
     42 H17        10.0123   -2.6842    0.6052 H         1 <0>         0.0569
     43 H18        10.8205   -1.1864    1.1266 H         1 <0>         0.0551
     44 H19        11.5086   -3.1063    2.5369 H         1 <0>         0.0592
     45 H20        10.6154   -1.8993    3.4926 H         1 <0>         0.0581
     46 H21         9.4344   -4.4415    2.2845 H         1 <0>         0.0627
     47 H22         8.2271   -2.3074    4.1024 H         1 <0>         0.0563
     48 H23         7.4188   -3.8052    3.5811 H         1 <0>         0.0684
@<TRIPOS>BOND
     1    1    6 ar
     2    1    2 ar
     3    1   26 1
     4    2    3 ar
     5    2   27 1
     6    3    4 ar
     7    3   28 1
     8    4    5 ar
     9    4    7 1
    10    5    6 ar
    11    5   29 1
    12    6   30 1
    13    7    8 1
    14    7   31 1
    15    7   32 1
    16    8    9 1
    17    8   14 1
    18    8   33 1
    19    9   10 1
    20    9   34 1
    21    9   35 1
    22   10   11 2
    23   10   12 am
    24   12   13 1
    25   12   36 1
    26   13   37 1
    27   14   15 2
    28   14   16 am
    29   16   17 1
    30   16   38 1
    31   17   22 1
    32   17   18 1
    33   17   39 1
    34   18   19 1
    35   18   40 1
    36   18   41 1
    37   19   20 1
    38   19   42 1
    39   19   43 1
    40   20   21 1
    41   20   44 1
    42   20   45 1
    43   21   22 1
    44   21   23 1
    45   21   46 1
    46   22   47 1
    47   22   48 1
    48   23   24 2
    49   23   25 1
@<TRIPOS>MOLECULE
CHEMBL351257__3
   48    49     0     0     0
SMALL
USER_CHARGES

@<TRIPOS>ATOM
      1 C1         -0.4282    0.7993    0.7056 C.ar      1 <0>        -0.1273
      2 C2          0.6196    1.6708    0.4744 C.ar      1 <0>        -0.1187
      3 C3          1.8941    1.1789    0.2636 C.ar      1 <0>        -0.1205
      4 C4          2.1209   -0.1846    0.2844 C.ar      1 <0>        -0.0759
      5 C5          1.0733   -1.0561    0.5165 C.ar      1 <0>        -0.1156
      6 C6         -0.2015   -0.5642    0.7259 C.ar      1 <0>        -0.1168
      7 C7          3.5102   -0.7209    0.0536 C.3       1 <0>        -0.0715
      8 C8          4.2347   -0.8544    1.3946 C.3       1 <0>        -0.0856
      9 C9          4.4322    0.5334    2.0078 C.3       1 <0>        -0.1298
     10 C10         5.3347    1.3510    1.1201 C.2       1 <0>         0.5158
     11 O1          5.8476    0.8440    0.1451 O.2       1 <0>        -0.4859
     12 N1          5.5717    2.6458    1.4097 N.am      1 <0>        -0.5998
     13 O2          6.4197    3.4141    0.5756 O.3       1 <0>        -0.3176
     14 C11         5.5773   -1.5035    1.1778 C.2       1 <0>         0.5230
     15 O3          5.9209   -1.8275    0.0607 O.2       1 <0>        -0.5244
     16 N2          6.3962   -1.7240    2.2252 N.am      1 <0>        -0.7210
     17 C12         7.7014   -2.3551    2.0145 C.3       1 <0>         0.1471
     18 C13         8.7268   -1.2883    1.6254 C.3       1 <0>        -0.1257
     19 C14         8.8360   -0.2529    2.7465 C.3       1 <0>        -0.1078
     20 C15         9.2830   -0.9434    4.0366 C.3       1 <0>        -0.0964
     21 C16         8.2576   -2.0102    4.4257 C.3       1 <0>        -0.1490
     22 C17         8.1484   -3.0456    3.3046 C.3       1 <0>        -0.0970
     23 C18         8.6978   -2.6903    5.6964 C.2       1 <0>         0.4946
     24 O4          8.8468   -2.0390    6.7163 O.co2     1 <0>        -0.7032
     25 O5          8.9050   -3.8917    5.7046 O.co2     1 <0>        -0.6967
     26 H1         -1.4232    1.1838    0.8747 H         1 <0>         0.1190
     27 H2          0.4423    2.7361    0.4581 H         1 <0>         0.1193
     28 H3          2.7126    1.8598    0.0822 H         1 <0>         0.1169
     29 H4          1.2504   -2.1213    0.5324 H         1 <0>         0.1234
     30 H5         -1.0201   -1.2451    0.9069 H         1 <0>         0.1208
     31 H6          3.4475   -1.6985   -0.4244 H         1 <0>         0.0841
     32 H7          4.0616   -0.0362   -0.5907 H         1 <0>         0.0967
     33 H8          3.6389   -1.4686    2.0699 H         1 <0>         0.1077
     34 H9          3.4666    1.0304    2.1007 H         1 <0>         0.1093
     35 H10         4.8859    0.4336    2.9939 H         1 <0>         0.1056
     36 H11         5.1615    3.0513    2.1895 H         1 <0>         0.4054
     37 H12         6.5292    4.3307    0.8635 H         1 <0>         0.3839
     38 H13         6.1214   -1.4649    3.1187 H         1 <0>         0.3954
     39 H14         7.6236   -3.0927    1.2157 H         1 <0>         0.0800
     40 H15         9.6979   -1.7578    1.4685 H         1 <0>         0.0653
     41 H16         8.4084   -0.7964    0.7063 H         1 <0>         0.0635
     42 H17         9.5666    0.5071    2.4693 H         1 <0>         0.0506
     43 H18         7.8649    0.2166    2.9033 H         1 <0>         0.0497
     44 H19        10.2541   -1.4129    3.8798 H         1 <0>         0.0540
     45 H20         9.3608   -0.2058    4.8353 H         1 <0>         0.0612
     46 H21         7.2865   -1.5407    4.5825 H         1 <0>         0.0543
     47 H22         7.4178   -3.8056    3.5818 H         1 <0>         0.0644
     48 H23         9.1195   -3.5151    3.1478 H         1 <0>         0.0748
@<TRIPOS>BOND
     1    1    6 ar
     2    1    2 ar
     3    1   26 1
     4    2    3 ar
     5    2   27 1
     6    3    4 ar
     7    3   28 1
     8    4    5 ar
     9    4    7 1
    10    5    6 ar
    11    5   29 1
    12    6   30 1
    13    7    8 1
    14    7   31 1
    15    7   32 1
    16    8    9 1
    17    8   14 1
    18    8   33 1
    19    9   10 1
    20    9   34 1
    21    9   35 1
    22   10   11 2
    23   10   12 am
    24   12   13 1
    25   12   36 1
    26   13   37 1
    27   14   15 2
    28   14   16 am
    29   16   17 1
    30   16   38 1
    31   17   22 1
    32   17   18 1
    33   17   39 1
    34   18   19 1
    35   18   40 1
    36   18   41 1
    37   19   20 1
    38   19   42 1
    39   19   43 1
    40   20   21 1
    41   20   44 1
    42   20   45 1
    43   21   22 1
    44   21   23 1
    45   21   46 1
    46   22   47 1
    47   22   48 1
    48   23   24 2
    49   23   25 1
@<TRIPOS>MOLECULE
CHEMBL351257__4
   48    49     0     0     0
SMALL
USER_CHARGES

@<TRIPOS>ATOM
      1 C1          0.5923    2.4014    0.6071 C.ar      1 <0>        -0.1274
      2 C2          1.9189    2.7883    0.5719 C.ar      1 <0>        -0.1168
      3 C3          2.9099    1.8431    0.3838 C.ar      1 <0>        -0.1155
      4 C4          2.5742    0.5108    0.2312 C.ar      1 <0>        -0.0757
      5 C5          1.2477    0.1237    0.2674 C.ar      1 <0>        -0.1206
      6 C6          0.2566    1.0692    0.4541 C.ar      1 <0>        -0.1187
      7 C7          3.6545   -0.5196    0.0251 C.3       1 <0>        -0.0726
      8 C8          4.1140   -1.0553    1.3826 C.3       1 <0>        -0.0853
      9 C9          2.9608   -1.8061    2.0514 C.3       1 <0>        -0.1297
     10 C10         2.5809   -2.9967    1.2092 C.2       1 <0>         0.5170
     11 O1          3.2324   -3.2759    0.2250 O.2       1 <0>        -0.4874
     12 N1          1.5173   -3.7511    1.5496 N.am      1 <0>        -0.5995
     13 O2          1.1604   -4.8698    0.7583 O.3       1 <0>        -0.3173
     14 C11         5.2766   -1.9935    1.1849 C.2       1 <0>         0.5247
     15 O3          5.7243   -2.1785    0.0730 O.2       1 <0>        -0.5265
     16 N2          5.8189   -2.6270    2.2437 N.am      1 <0>        -0.7208
     17 C12         6.8729   -3.6239    2.0399 C.3       1 <0>         0.1500
     18 C13         6.2380   -4.9828    1.7381 C.3       1 <0>        -0.1257
     19 C14         5.3560   -5.4063    2.9144 C.3       1 <0>        -0.1104
     20 C15         6.2097   -5.5119    4.1797 C.3       1 <0>        -0.0911
     21 C16         6.8446   -4.1530    4.4815 C.3       1 <0>        -0.1489
     22 C17         7.7265   -3.7296    3.3052 C.3       1 <0>        -0.1027
     23 C18         7.6855   -4.2571    5.7278 C.2       1 <0>         0.4943
     24 O4          7.7692   -5.3197    6.3197 O.co2     1 <0>        -0.6967
     25 O5          8.2821   -3.2787    6.1441 O.co2     1 <0>        -0.7026
     26 H1         -0.1816    3.1393    0.7586 H         1 <0>         0.1189
     27 H2          2.1812    3.8292    0.6911 H         1 <0>         0.1208
     28 H3          3.9463    2.1455    0.3555 H         1 <0>         0.1235
     29 H4          0.9854   -0.9171    0.1478 H         1 <0>         0.1167
     30 H5         -0.7798    0.7668    0.4820 H         1 <0>         0.1192
     31 H6          3.2636   -1.3405   -0.5761 H         1 <0>         0.0977
     32 H7          4.4993   -0.0622   -0.4899 H         1 <0>         0.0845
     33 H8          4.4219   -0.2235    2.0161 H         1 <0>         0.1083
     34 H9          3.2723   -2.1447    3.0396 H         1 <0>         0.1056
     35 H10         2.1025   -1.1413    2.1490 H         1 <0>         0.1091
     36 H11         0.9963   -3.5278    2.3368 H         1 <0>         0.4053
     37 H12         0.3848   -5.3486    1.0812 H         1 <0>         0.3840
     38 H13         5.5114   -2.4228    3.1407 H         1 <0>         0.3965
     39 H14         7.5012   -3.3222    1.2018 H         1 <0>         0.0814
     40 H15         5.6298   -4.9076    0.8366 H         1 <0>         0.0631
     41 H16         7.0221   -5.7246    1.5864 H         1 <0>         0.0656
     42 H17         4.5719   -4.6645    3.0661 H         1 <0>         0.0471
     43 H18         4.9037   -6.3744    2.6994 H         1 <0>         0.0499
     44 H19         5.5814   -5.8136    5.0178 H         1 <0>         0.0560
     45 H20         6.9939   -6.2537    4.0280 H         1 <0>         0.0599
     46 H21         6.0605   -3.4113    4.6332 H         1 <0>         0.0543
     47 H22         8.5107   -4.4713    3.1535 H         1 <0>         0.0688
     48 H23         8.1789   -2.7615    3.5202 H         1 <0>         0.0694
@<TRIPOS>BOND
     1    1    6 ar
     2    1    2 ar
     3    1   26 1
     4    2    3 ar
     5    2   27 1
     6    3    4 ar
     7    3   28 1
     8    4    5 ar
     9    4    7 1
    10    5    6 ar
    11    5   29 1
    12    6   30 1
    13    7    8 1
    14    7   31 1
    15    7   32 1
    16    8    9 1
    17    8   14 1
    18    8   33 1
    19    9   10 1
    20    9   34 1
    21    9   35 1
    22   10   11 2
    23   10   12 am
    24   12   13 1
    25   12   36 1
    26   13   37 1
    27   14   15 2
    28   14   16 am
    29   16   17 1
    30   16   38 1
    31   17   22 1
    32   17   18 1
    33   17   39 1
    34   18   19 1
    35   18   40 1
    36   18   41 1
    37   19   20 1
    38   19   42 1
    39   19   43 1
    40   20   21 1
    41   20   44 1
    42   20   45 1
    43   21   22 1
    44   21   23 1
    45   21   46 1
    46   22   47 1
    47   22   48 1
    48   23   24 2
    49   23   25 1
@<TRIPOS>MOLECULE
CHEMBL351257__5
   48    49     0     0     0
SMALL
USER_CHARGES

@<TRIPOS>ATOM
      1 C1          0.6013    2.4167    0.5702 C.ar      1 <0>        -0.1273
      2 C2          1.9305    2.7936    0.5277 C.ar      1 <0>        -0.1167
      3 C3          2.9142    1.8393    0.3474 C.ar      1 <0>        -0.1156
      4 C4          2.5686    0.5079    0.2101 C.ar      1 <0>        -0.0756
      5 C5          1.2394    0.1308    0.2535 C.ar      1 <0>        -0.1207
      6 C6          0.2557    1.0853    0.4324 C.ar      1 <0>        -0.1187
      7 C7          3.6409   -0.5324    0.0126 C.3       1 <0>        -0.0738
      8 C8          4.0999   -1.0567    1.3747 C.3       1 <0>        -0.0850
      9 C9          2.9430   -1.7919    2.0543 C.3       1 <0>        -0.1279
     10 C10         2.5510   -2.9874    1.2248 C.2       1 <0>         0.5149
     11 O1          3.1985   -3.2827    0.2427 O.2       1 <0>        -0.4862
     12 N1          1.4809   -3.7285    1.5742 N.am      1 <0>        -0.6003
     13 O2          1.1126   -4.8519    0.7947 O.3       1 <0>        -0.3172
     14 C11         5.2553   -2.0054    1.1844 C.2       1 <0>         0.5234
     15 O3          5.7010   -2.2032    0.0740 O.2       1 <0>        -0.5218
     16 N2          5.7933   -2.6339    2.2483 N.am      1 <0>        -0.7278
     17 C12         6.8398   -3.6403    2.0525 C.3       1 <0>         0.1442
     18 C13         6.1947   -4.9970    1.7623 C.3       1 <0>        -0.1199
     19 C14         7.2876   -6.0480    1.5577 C.3       1 <0>        -0.1141
     20 C15         8.1410   -6.1494    2.8236 C.3       1 <0>        -0.0956
     21 C16         8.7861   -4.7927    3.1138 C.3       1 <0>        -0.1497
     22 C17         7.6932   -3.7417    3.3183 C.3       1 <0>        -0.0915
     23 C18         9.6266   -4.8926    4.3606 C.2       1 <0>         0.4971
     24 O4         10.5584   -5.6776    4.4063 O.co2     1 <0>        -0.7015
     25 O5          9.3749   -4.1884    5.3235 O.co2     1 <0>        -0.6997
     26 H1         -0.1669    3.1617    0.7155 H         1 <0>         0.1190
     27 H2          2.2005    3.8338    0.6349 H         1 <0>         0.1209
     28 H3          3.9527    2.1339    0.3135 H         1 <0>         0.1236
     29 H4          0.9694   -0.9093    0.1459 H         1 <0>         0.1166
     30 H5         -0.7829    0.7908    0.4659 H         1 <0>         0.1193
     31 H6          3.2427   -1.3569   -0.5788 H         1 <0>         0.0978
     32 H7          4.4878   -0.0868   -0.5093 H         1 <0>         0.0851
     33 H8          4.4154   -0.2204    1.9985 H         1 <0>         0.1084
     34 H9          3.2550   -2.1235    3.0447 H         1 <0>         0.1055
     35 H10         2.0903   -1.1195    2.1482 H         1 <0>         0.1091
     36 H11         0.9630   -3.4924    2.3597 H         1 <0>         0.4051
     37 H12         0.3331   -5.3202    1.1235 H         1 <0>         0.3842
     38 H13         5.4877   -2.4200    3.1437 H         1 <0>         0.3937
     39 H14         7.4699   -3.3503    1.2117 H         1 <0>         0.0825
     40 H15         5.5646   -5.2870    2.6031 H         1 <0>         0.0542
     41 H16         5.5867   -4.9248    0.8605 H         1 <0>         0.0622
     42 H17         6.8280   -7.0146    1.3510 H         1 <0>         0.0557
     43 H18         7.9177   -5.7581    0.7169 H         1 <0>         0.0591
     44 H19         7.5108   -6.4394    3.6643 H         1 <0>         0.0520
     45 H20         8.9196   -6.8982    2.6778 H         1 <0>         0.0643
     46 H21         9.4162   -4.5028    2.2730 H         1 <0>         0.0628
     47 H22         8.1527   -2.7752    3.5251 H         1 <0>         0.0633
     48 H23         7.0630   -4.0317    4.1591 H         1 <0>         0.0623
@<TRIPOS>BOND
     1    1    6 ar
     2    1    2 ar
     3    1   26 1
     4    2    3 ar
     5    2   27 1
     6    3    4 ar
     7    3   28 1
     8    4    5 ar
     9    4    7 1
    10    5    6 ar
    11    5   29 1
    12    6   30 1
    13    7    8 1
    14    7   31 1
    15    7   32 1
    16    8    9 1
    17    8   14 1
    18    8   33 1
    19    9   10 1
    20    9   34 1
    21    9   35 1
    22   10   11 2
    23   10   12 am
    24   12   13 1
    25   12   36 1
    26   13   37 1
    27   14   15 2
    28   14   16 am
    29   16   17 1
    30   16   38 1
    31   17   22 1
    32   17   18 1
    33   17   39 1
    34   18   19 1
    35   18   40 1
    36   18   41 1
    37   19   20 1
    38   19   42 1
    39   19   43 1
    40   20   21 1
    41   20   44 1
    42   20   45 1
    43   21   22 1
    44   21   23 1
    45   21   46 1
    46   22   47 1
    47   22   48 1
    48   23   24 2
    49   23   25 1
@<TRIPOS>MOLECULE
CHEMBL351257__6
   48    49     0     0     0
SMALL
USER_CHARGES

@<TRIPOS>ATOM
      1 C1          0.4952    2.3004    0.6586 C.ar      1 <0>        -0.1273
      2 C2          1.8076    2.7333    0.6278 C.ar      1 <0>        -0.1172
      3 C3          2.8305    1.8251    0.4280 C.ar      1 <0>        -0.1161
      4 C4          2.5409    0.4840    0.2595 C.ar      1 <0>        -0.0755
      5 C5          1.2285    0.0509    0.2913 C.ar      1 <0>        -0.1202
      6 C6          0.2056    0.9593    0.4896 C.ar      1 <0>        -0.1182
      7 C7          3.6559   -0.5060    0.0407 C.3       1 <0>        -0.0739
      8 C8          4.1345   -1.0418    1.3915 C.3       1 <0>        -0.0840
      9 C9          3.0083   -1.8400    2.0516 C.3       1 <0>        -0.1285
     10 C10         2.6702   -3.0335    1.1958 C.2       1 <0>         0.5149
     11 O1          3.3313   -3.2791    0.2092 O.2       1 <0>        -0.4885
     12 N1          1.6331   -3.8280    1.5270 N.am      1 <0>        -0.5991
     13 O2          1.3154   -4.9494    0.7229 O.3       1 <0>        -0.3160
     14 C11         5.3287   -1.9369    1.1823 C.2       1 <0>         0.5232
     15 O3          5.7820   -2.0927    0.0682 O.2       1 <0>        -0.5201
     16 N2          5.8930   -2.5642    2.2333 N.am      1 <0>        -0.7285
     17 C12         6.9801   -3.5222    2.0171 C.3       1 <0>         0.1484
     18 C13         8.3117   -2.7729    1.9367 C.3       1 <0>        -0.1214
     19 C14         9.4470   -3.7734    1.7110 C.3       1 <0>        -0.1180
     20 C15         9.4901   -4.7668    2.8738 C.3       1 <0>        -0.0908
     21 C16         8.1586   -5.5161    2.9541 C.3       1 <0>        -0.1498
     22 C17         7.0232   -4.5156    3.1799 C.3       1 <0>        -0.0960
     23 C18         8.2011   -6.4945    4.0995 C.2       1 <0>         0.4966
     24 O4          9.2035   -6.5843    4.7877 O.co2     1 <0>        -0.6970
     25 O5          7.2331   -7.1964    4.3379 O.co2     1 <0>        -0.7033
     26 H1         -0.3036    3.0093    0.8192 H         1 <0>         0.1190
     27 H2          2.0339    3.7811    0.7594 H         1 <0>         0.1206
     28 H3          3.8558    2.1634    0.4032 H         1 <0>         0.1229
     29 H4          1.0022   -0.9968    0.1593 H         1 <0>         0.1174
     30 H5         -0.8198    0.6210    0.5141 H         1 <0>         0.1197
     31 H6          3.2932   -1.3326   -0.5702 H         1 <0>         0.0983
     32 H7          4.4841   -0.0136   -0.4689 H         1 <0>         0.0847
     33 H8          4.4140   -0.2076    2.0350 H         1 <0>         0.1074
     34 H9          3.3316   -2.1786    3.0359 H         1 <0>         0.1058
     35 H10         2.1273   -1.2068    2.1564 H         1 <0>         0.1092
     36 H11         1.1043   -3.6316    2.3161 H         1 <0>         0.4053
     37 H12         0.5567   -5.4583    1.0398 H         1 <0>         0.3850
     38 H13         5.5794   -2.3815    3.1328 H         1 <0>         0.3929
     39 H14         6.8096   -4.0610    1.0850 H         1 <0>         0.0834
     40 H15         8.2809   -2.0652    1.1083 H         1 <0>         0.0593
     41 H16         8.4822   -2.2341    2.8688 H         1 <0>         0.0585
     42 H17         9.2765   -4.3122    0.7789 H         1 <0>         0.0571
     43 H18        10.3956   -3.2396    1.6537 H         1 <0>         0.0561
     44 H19        10.2990   -5.4796    2.7130 H         1 <0>         0.0594
     45 H20         9.6607   -4.2280    3.8058 H         1 <0>         0.0590
     46 H21         7.9881   -6.0549    2.0221 H         1 <0>         0.0624
     47 H22         7.1938   -3.9768    4.1120 H         1 <0>         0.0569
     48 H23         6.0746   -5.0494    3.2371 H         1 <0>         0.0662
@<TRIPOS>BOND
     1    1    6 ar
     2    1    2 ar
     3    1   26 1
     4    2    3 ar
     5    2   27 1
     6    3    4 ar
     7    3   28 1
     8    4    5 ar
     9    4    7 1
    10    5    6 ar
    11    5   29 1
    12    6   30 1
    13    7    8 1
    14    7   31 1
    15    7   32 1
    16    8    9 1
    17    8   14 1
    18    8   33 1
    19    9   10 1
    20    9   34 1
    21    9   35 1
    22   10   11 2
    23   10   12 am
    24   12   13 1
    25   12   36 1
    26   13   37 1
    27   14   15 2
    28   14   16 am
    29   16   17 1
    30   16   38 1
    31   17   22 1
    32   17   18 1
    33   17   39 1
    34   18   19 1
    35   18   40 1
    36   18   41 1
    37   19   20 1
    38   19   42 1
    39   19   43 1
    40   20   21 1
    41   20   44 1
    42   20   45 1
    43   21   22 1
    44   21   23 1
    45   21   46 1
    46   22   47 1
    47   22   48 1
    48   23   24 2
    49   23   25 1
@<TRIPOS>MOLECULE
CHEMBL351257__7
   48    49     0     0     0
SMALL
USER_CHARGES

@<TRIPOS>ATOM
      1 C1          0.4954    2.3006    0.6585 C.ar      1 <0>        -0.1274
      2 C2          1.8079    2.7334    0.6276 C.ar      1 <0>        -0.1171
      3 C3          2.8307    1.8251    0.4279 C.ar      1 <0>        -0.1159
      4 C4          2.5410    0.4840    0.2595 C.ar      1 <0>        -0.0756
      5 C5          1.2285    0.0511    0.2912 C.ar      1 <0>        -0.1203
      6 C6          0.2057    0.9596    0.4896 C.ar      1 <0>        -0.1183
      7 C7          3.6559   -0.5060    0.0407 C.3       1 <0>        -0.0726
      8 C8          4.1344   -1.0419    1.3915 C.3       1 <0>        -0.0849
      9 C9          3.0082   -1.8399    2.0516 C.3       1 <0>        -0.1299
     10 C10         2.6700   -3.0334    1.1959 C.2       1 <0>         0.5169
     11 O1          3.3311   -3.2791    0.2092 O.2       1 <0>        -0.4903
     12 N1          1.6328   -3.8278    1.5271 N.am      1 <0>        -0.5990
     13 O2          1.3150   -4.9492    0.7231 O.3       1 <0>        -0.3174
     14 C11         5.3286   -1.9370    1.1823 C.2       1 <0>         0.5237
     15 O3          5.7818   -2.0929    0.0682 O.2       1 <0>        -0.5254
     16 N2          5.8928   -2.5644    2.2333 N.am      1 <0>        -0.7211
     17 C12         6.9798   -3.5225    2.0171 C.3       1 <0>         0.1473
     18 C13         8.3115   -2.7733    1.9367 C.3       1 <0>        -0.1258
     19 C14         8.5509   -2.0170    3.2450 C.3       1 <0>        -0.1133
     20 C15         8.5940   -3.0104    4.4079 C.3       1 <0>        -0.0964
     21 C16         7.2623   -3.7595    4.4882 C.3       1 <0>        -0.1495
     22 C17         7.0229   -4.5158    3.1800 C.3       1 <0>        -0.0960
     23 C18         7.3047   -4.7379    5.6336 C.2       1 <0>         0.4944
     24 O4          7.4867   -4.3377    6.7708 O.co2     1 <0>        -0.7028
     25 O5          7.1571   -5.9297    5.4231 O.co2     1 <0>        -0.6970
     26 H1         -0.3033    3.0096    0.8191 H         1 <0>         0.1189
     27 H2          2.0342    3.7812    0.7592 H         1 <0>         0.1206
     28 H3          3.8560    2.1634    0.4031 H         1 <0>         0.1230
     29 H4          1.0022   -0.9966    0.1593 H         1 <0>         0.1171
     30 H5         -0.8197    0.6214    0.5140 H         1 <0>         0.1195
     31 H6          3.2931   -1.3326   -0.5702 H         1 <0>         0.0978
     32 H7          4.4841   -0.0137   -0.4690 H         1 <0>         0.0843
     33 H8          4.4140   -0.2076    2.0349 H         1 <0>         0.1074
     34 H9          3.3314   -2.1785    3.0360 H         1 <0>         0.1069
     35 H10         2.1273   -1.2066    2.1564 H         1 <0>         0.1093
     36 H11         1.1041   -3.6313    2.3162 H         1 <0>         0.4061
     37 H12         0.5562   -5.4580    1.0400 H         1 <0>         0.3847
     38 H13         5.5792   -2.3816    3.1328 H         1 <0>         0.3955
     39 H14         6.8093   -4.0613    1.0851 H         1 <0>         0.0798
     40 H15         9.1202   -3.4862    1.7759 H         1 <0>         0.0667
     41 H16         8.2808   -2.0656    1.1083 H         1 <0>         0.0603
     42 H17         9.4996   -1.4833    3.1877 H         1 <0>         0.0530
     43 H18         7.7421   -1.3042    3.4058 H         1 <0>         0.0549
     44 H19         9.4027   -3.7232    4.2470 H         1 <0>         0.0539
     45 H20         8.7645   -2.4715    5.3399 H         1 <0>         0.0626
     46 H21         6.4536   -3.0467    4.6491 H         1 <0>         0.0549
     47 H22         6.0742   -5.0495    3.2372 H         1 <0>         0.0622
     48 H23         7.8317   -5.2287    3.0191 H         1 <0>         0.0746
@<TRIPOS>BOND
     1    1    6 ar
     2    1    2 ar
     3    1   26 1
     4    2    3 ar
     5    2   27 1
     6    3    4 ar
     7    3   28 1
     8    4    5 ar
     9    4    7 1
    10    5    6 ar
    11    5   29 1
    12    6   30 1
    13    7    8 1
    14    7   31 1
    15    7   32 1
    16    8    9 1
    17    8   14 1
    18    8   33 1
    19    9   10 1
    20    9   34 1
    21    9   35 1
    22   10   11 2
    23   10   12 am
    24   12   13 1
    25   12   36 1
    26   13   37 1
    27   14   15 2
    28   14   16 am
    29   16   17 1
    30   16   38 1
    31   17   22 1
    32   17   18 1
    33   17   39 1
    34   18   19 1
    35   18   40 1
    36   18   41 1
    37   19   20 1
    38   19   42 1
    39   19   43 1
    40   20   21 1
    41   20   44 1
    42   20   45 1
    43   21   22 1
    44   21   23 1
    45   21   46 1
    46   22   47 1
    47   22   48 1
    48   23   24 2
    49   23   25 1
@<TRIPOS>MOLECULE
CHEMBL481343
   49    52     0     0     0
SMALL
USER_CHARGES

@<TRIPOS>ATOM
      1 C1          0.1550   -4.2697    4.2309 C.ar      1 <0>        -0.1086
      2 C2          1.3587   -4.5860    4.8422 C.ar      1 <0>        -0.0927
      3 C3          2.5548   -4.3503    4.1956 C.ar      1 <0>        -0.0877
      4 C4          2.5560   -3.7937    2.9267 C.ar      1 <0>         0.0040
      5 C5          1.3404   -3.4721    2.3047 C.ar      1 <0>         0.0418
      6 C6          0.1380   -3.7158    2.9698 C.ar      1 <0>        -0.0611
      7 N1          1.6526   -2.9504    1.0867 N.2       1 <0>        -0.4588
      8 C7          2.9523   -2.9442    0.9539 C.2       1 <0>         0.4160
      9 O1          3.5322   -3.4506    2.0555 O.3       1 <0>        -0.2374
     10 O2          3.6172   -2.4934   -0.1334 O.3       1 <0>        -0.1750
     11 C8          4.9755   -2.4581   -0.0817 C.ar      1 <0>         0.0363
     12 C9          5.6313   -1.2504    0.1072 C.ar      1 <0>        -0.0590
     13 C10         7.0110   -1.2145    0.1596 C.ar      1 <0>        -0.1278
     14 C11         7.7409   -2.3861    0.0233 C.ar      1 <0>         0.1321
     15 C12         7.0852   -3.5937   -0.1661 C.ar      1 <0>        -0.1901
     16 C13         5.7053   -3.6305   -0.2123 C.ar      1 <0>        -0.0684
     17 O3          9.0991   -2.3508    0.0749 O.3       1 <0>        -0.3232
     18 C14         9.7866   -3.5949   -0.0728 C.3       1 <0>         0.0222
     19 C15        11.2956   -3.3569    0.0119 C.3       1 <0>        -0.0007
     20 N2         11.6374   -2.8518    1.3483 N.4       1 <0>        -0.3874
     21 C16        13.0551   -2.4726    1.3785 C.3       1 <0>        -0.0019
     22 C17        13.3969   -1.8704    2.7431 C.3       1 <0>        -0.1447
     23 C18        13.1207   -2.9070    3.8360 C.3       1 <0>         0.0967
     24 C19        11.6576   -3.3504    3.7473 C.3       1 <0>        -0.1830
     25 C20        11.3802   -3.8977    2.3455 C.3       1 <0>        -0.0094
     26 O4         13.3673   -2.3267    5.1183 O.3       1 <0>        -0.5523
     27 H1         -0.7751   -4.4628    4.7449 H         1 <0>         0.1438
     28 H2          1.3601   -5.0196    5.8314 H         1 <0>         0.1451
     29 H3          3.4886   -4.5989    4.6781 H         1 <0>         0.1349
     30 H4         -0.8020   -3.4707    2.4978 H         1 <0>         0.1426
     31 H5          5.0630   -0.3381    0.2129 H         1 <0>         0.1526
     32 H6          7.5215   -0.2742    0.3063 H         1 <0>         0.1487
     33 H7          7.6536   -4.5058   -0.2729 H         1 <0>         0.1401
     34 H8          5.1946   -4.5715   -0.3546 H         1 <0>         0.1432
     35 H9          9.4809   -4.2755    0.7218 H         1 <0>         0.0887
     36 H10         9.5415   -4.0327   -1.0405 H         1 <0>         0.1139
     37 H11        11.8219   -4.2944   -0.1678 H         1 <0>         0.1521
     38 H12        11.5907   -2.6247   -0.7397 H         1 <0>         0.1460
     39 H13        13.6707   -3.3556    1.2070 H         1 <0>         0.1332
     40 H14        13.2507   -1.7372    0.5981 H         1 <0>         0.1396
     41 H15        14.4503   -1.5911    2.7641 H         1 <0>         0.1215
     42 H16        12.7820   -0.9871    2.9155 H         1 <0>         0.0971
     43 H17        13.7721   -3.7693    3.6935 H         1 <0>         0.0740
     44 H18        11.4678   -4.1289    4.4862 H         1 <0>         0.1153
     45 H19        11.0066   -2.4978    3.9406 H         1 <0>         0.0974
     46 H20        10.3394   -4.2144    2.2790 H         1 <0>         0.1310
     47 H21        12.0315   -4.7503    2.1534 H         1 <0>         0.1336
     48 H22        13.2121   -2.9287    5.8590 H         1 <0>         0.3946
     49 H23        11.0706   -2.0434    1.5563 H         1 <0>         0.4310
@<TRIPOS>BOND
     1    1    6 ar
     2    1    2 ar
     3    1   27 1
     4    2    3 ar
     5    2   28 1
     6    3    4 ar
     7    3   29 1
     8    4    9 1
     9    4    5 ar
    10    5    6 ar
    11    5    7 1
    12    6   30 1
    13    7    8 2
    14    8    9 1
    15    8   10 1
    16   10   11 1
    17   11   16 ar
    18   11   12 ar
    19   12   13 ar
    20   12   31 1
    21   13   14 ar
    22   13   32 1
    23   14   15 ar
    24   14   17 1
    25   15   16 ar
    26   15   33 1
    27   16   34 1
    28   17   18 1
    29   18   19 1
    30   18   35 1
    31   18   36 1
    32   19   20 1
    33   19   37 1
    34   19   38 1
    35   20   25 1
    36   20   21 1
    37   20   49 1
    38   21   22 1
    39   21   39 1
    40   21   40 1
    41   22   23 1
    42   22   41 1
    43   22   42 1
    44   23   24 1
    45   23   26 1
    46   23   43 1
    47   24   25 1
    48   24   44 1
    49   24   45 1
    50   25   46 1
    51   25   47 1
    52   26   48 1
@<TRIPOS>MOLECULE
CHEMBL14760
   45    48     0     0     0
SMALL
USER_CHARGES

@<TRIPOS>ATOM
      1 C1         -0.0167    1.3781    0.0096 C.ar      1 <0>        -0.1212
      2 C2          1.1709    2.0855    0.0021 C.ar      1 <0>        -0.1161
      3 C3          2.3773    1.4107   -0.0130 C.ar      1 <0>        -0.1146
      4 C4          2.3960    0.0285   -0.0201 C.ar      1 <0>        -0.0810
      5 C5          1.2084   -0.6789   -0.0117 C.ar      1 <0>        -0.1165
      6 C6          0.0021   -0.0041    0.0020 C.ar      1 <0>        -0.1179
      7 C7          3.7112   -0.7071   -0.0376 C.3       1 <0>        -0.0430
      8 C8          4.1644   -0.9594    1.3773 C.ar      1 <0>        -0.0961
      9 C9          4.9522   -0.0267    2.0264 C.ar      1 <0>        -0.0710
     10 C10         5.3694   -0.2559    3.3232 C.ar      1 <0>        -0.1365
     11 C11         4.9969   -1.4228    3.9745 C.ar      1 <0>         0.1130
     12 C12         4.2060   -2.3568    3.3213 C.ar      1 <0>        -0.2020
     13 C13         3.7871   -2.1206    2.0262 C.ar      1 <0>        -0.0740
     14 O1          5.4064   -1.6507    5.2502 O.3       1 <0>        -0.3065
     15 C14         4.9849   -2.8733    5.8582 C.3       1 <0>         0.0411
     16 C15         5.5391   -2.9523    7.2821 C.3       1 <0>         0.0967
     17 N1          5.1069   -4.2057    7.9054 N.pl3     1 <0>        -0.4158
     18 C16         4.0169   -4.3766    8.6993 C.cat     1 <0>         0.3906
     19 N2          3.9304   -5.6193    9.0813 N.pl3     1 <0>        -0.4897
     20 C17         4.9574   -6.3278    8.5589 C.ar      1 <0>         0.0884
     21 C18         5.7274   -5.4321    7.7905 C.ar      1 <0>         0.0088
     22 C19         6.8509   -5.9056    7.1328 C.ar      1 <0>         0.1744
     23 N3          7.1875   -7.1771    7.2260 N.ar      1 <0>        -0.4343
     24 C20         6.4857   -8.0440    7.9360 C.ar      1 <0>         0.1339
     25 C21         5.3676   -7.6641    8.6235 C.ar      1 <0>        -0.1259
     26 H1         -0.9591    1.9053    0.0259 H         1 <0>         0.1228
     27 H2          1.1563    3.1654    0.0076 H         1 <0>         0.1237
     28 H3          3.3051    1.9634   -0.0196 H         1 <0>         0.1215
     29 H4          1.2231   -1.7588   -0.0176 H         1 <0>         0.1189
     30 H5         -0.9258   -0.5567    0.0082 H         1 <0>         0.1222
     31 H6          3.5884   -1.6586   -0.5549 H         1 <0>         0.0843
     32 H7          4.4573   -0.1052   -0.5563 H         1 <0>         0.0864
     33 H8          5.2420    0.8815    1.5189 H         1 <0>         0.1349
     34 H9          5.9853    0.4726    3.8295 H         1 <0>         0.1353
     35 H10         3.9147   -3.2660    3.8262 H         1 <0>         0.1217
     36 H11         3.1678   -2.8454    1.5188 H         1 <0>         0.1273
     37 H12         3.8958   -2.9068    5.8898 H         1 <0>         0.0761
     38 H13         5.3576   -3.7160    5.2759 H         1 <0>         0.0765
     39 H14         6.6281   -2.9189    7.2505 H         1 <0>         0.1365
     40 H15         5.1664   -2.1096    7.8643 H         1 <0>         0.1397
     41 H16         3.3235   -3.5956    8.9742 H         1 <0>         0.2744
     42 H17         7.4528   -5.2313    6.5417 H         1 <0>         0.1850
     43 H18         6.8063   -9.0745    7.9779 H         1 <0>         0.1912
     44 H19         4.8043   -8.3846    9.1979 H         1 <0>         0.1687
     45 H20         3.2356   -5.9812    9.6533 H         1 <0>         0.4687
@<TRIPOS>BOND
     1    1    6 ar
     2    1    2 ar
     3    1   26 1
     4    2    3 ar
     5    2   27 1
     6    3    4 ar
     7    3   28 1
     8    4    5 ar
     9    4    7 1
    10    5    6 ar
    11    5   29 1
    12    6   30 1
    13    7    8 1
    14    7   31 1
    15    7   32 1
    16    8   13 ar
    17    8    9 ar
    18    9   10 ar
    19    9   33 1
    20   10   11 ar
    21   10   34 1
    22   11   12 ar
    23   11   14 1
    24   12   13 ar
    25   12   35 1
    26   13   36 1
    27   14   15 1
    28   15   16 1
    29   15   37 1
    30   15   38 1
    31   16   17 1
    32   16   39 1
    33   16   40 1
    34   17   21 1
    35   17   18 1
    36   18   19 2
    37   18   41 1
    38   19   20 1
    39   19   45 1
    40   20   25 ar
    41   20   21 ar
    42   21   22 ar
    43   22   23 ar
    44   22   42 1
    45   23   24 ar
    46   24   25 ar
    47   24   43 1
    48   25   44 1
@<TRIPOS>MOLECULE
CHEMBL14760__1
   46    49     0     0     0
SMALL
USER_CHARGES

@<TRIPOS>ATOM
      1 C1         -0.0167    1.3781    0.0096 C.ar      1 <0>        -0.1182
      2 C2          1.1709    2.0855    0.0021 C.ar      1 <0>        -0.1146
      3 C3          2.3773    1.4107   -0.0130 C.ar      1 <0>        -0.1142
      4 C4          2.3960    0.0285   -0.0201 C.ar      1 <0>        -0.0854
      5 C5          1.2084   -0.6789   -0.0117 C.ar      1 <0>        -0.1171
      6 C6          0.0021   -0.0041    0.0020 C.ar      1 <0>        -0.1175
      7 C7          3.7112   -0.7071   -0.0376 C.3       1 <0>        -0.0453
      8 C8          4.1644   -0.9594    1.3773 C.ar      1 <0>        -0.0860
      9 C9          4.9522   -0.0267    2.0264 C.ar      1 <0>        -0.0687
     10 C10         5.3694   -0.2559    3.3232 C.ar      1 <0>        -0.1311
     11 C11         4.9969   -1.4228    3.9745 C.ar      1 <0>         0.1027
     12 C12         4.2060   -2.3568    3.3213 C.ar      1 <0>        -0.2025
     13 C13         3.7871   -2.1206    2.0262 C.ar      1 <0>        -0.0752
     14 O1          5.4064   -1.6507    5.2502 O.3       1 <0>        -0.3039
     15 C14         4.9849   -2.8733    5.8582 C.3       1 <0>         0.0390
     16 C15         5.5391   -2.9523    7.2821 C.3       1 <0>         0.0840
     17 N1          5.1069   -4.2057    7.9054 N.pl3     1 <0>        -0.4096
     18 C16         4.0169   -4.3766    8.6993 C.cat     1 <0>         0.4529
     19 N2          3.9304   -5.6193    9.0813 N.pl3     1 <0>        -0.4895
     20 C17         4.9574   -6.3278    8.5589 C.ar      1 <0>         0.1577
     21 C18         5.7274   -5.4321    7.7905 C.ar      1 <0>         0.0322
     22 C19         6.8509   -5.9056    7.1328 C.ar      1 <0>         0.2244
     23 N3          7.1875   -7.1771    7.2260 N.ar      1 <0>        -0.4169
     24 C20         6.4857   -8.0440    7.9360 C.ar      1 <0>         0.1491
     25 C21         5.3676   -7.6641    8.6235 C.ar      1 <0>        -0.0658
     26 H1         -0.9591    1.9053    0.0259 H         1 <0>         0.1247
     27 H2          1.1563    3.1654    0.0076 H         1 <0>         0.1255
     28 H3          3.3051    1.9634   -0.0196 H         1 <0>         0.1218
     29 H4          1.2231   -1.7588   -0.0176 H         1 <0>         0.1179
     30 H5         -0.9258   -0.5567    0.0082 H         1 <0>         0.1231
     31 H6          3.5884   -1.6586   -0.5549 H         1 <0>         0.0855
     32 H7          4.4573   -0.1052   -0.5563 H         1 <0>         0.0885
     33 H8          5.2420    0.8815    1.5189 H         1 <0>         0.1388
     34 H9          5.9853    0.4726    3.8295 H         1 <0>         0.1372
     35 H10         3.9147   -3.2660    3.8262 H         1 <0>         0.1180
     36 H11         3.1678   -2.8454    1.5188 H         1 <0>         0.1292
     37 H12         3.8958   -2.9068    5.8898 H         1 <0>         0.0815
     38 H13         5.3576   -3.7160    5.2759 H         1 <0>         0.0724
     39 H14         6.6281   -2.9189    7.2505 H         1 <0>         0.1459
     40 H15         5.1664   -2.1096    7.8643 H         1 <0>         0.1572
     41 H16         3.3235   -3.5956    8.9742 H         1 <0>         0.2970
     42 H17         7.4528   -5.2313    6.5417 H         1 <0>         0.2363
     43 H18         6.8063   -9.0745    7.9779 H         1 <0>         0.2407
     44 H19         4.8043   -8.3846    9.1979 H         1 <0>         0.2153
     45 H20         3.2356   -5.9812    9.6533 H         1 <0>         0.4861
     46 H21         7.9777   -7.4876    6.7568 H         1 <0>         0.4769
@<TRIPOS>BOND
     1    1    6 ar
     2    1    2 ar
     3    1   26 1
     4    2    3 ar
     5    2   27 1
     6    3    4 ar
     7    3   28 1
     8    4    5 ar
     9    4    7 1
    10    5    6 ar
    11    5   29 1
    12    6   30 1
    13    7    8 1
    14    7   31 1
    15    7   32 1
    16    8   13 ar
    17    8    9 ar
    18    9   10 ar
    19    9   33 1
    20   10   11 ar
    21   10   34 1
    22   11   12 ar
    23   11   14 1
    24   12   13 ar
    25   12   35 1
    26   13   36 1
    27   14   15 1
    28   15   16 1
    29   15   37 1
    30   15   38 1
    31   16   17 1
    32   16   39 1
    33   16   40 1
    34   17   21 1
    35   17   18 1
    36   18   19 2
    37   18   41 1
    38   19   20 1
    39   19   45 1
    40   20   25 ar
    41   20   21 ar
    42   21   22 ar
    43   22   23 ar
    44   22   42 1
    45   23   24 ar
    46   23   46 1
    47   24   25 ar
    48   24   43 1
    49   25   44 1
@<TRIPOS>MOLECULE
CHEMBL1098531
   50    53     0     0     0
SMALL
USER_CHARGES

@<TRIPOS>ATOM
      1 C1          4.0709    5.5061   -1.2209 C.ar      1 <0>        -0.0970
      2 C2          3.9969    4.1289   -1.2003 C.ar      1 <0>        -0.1330
      3 C3          3.6198    3.4699   -0.0381 C.ar      1 <0>         0.0753
      4 C4          3.3161    4.1944    1.1066 C.ar      1 <0>        -0.1125
      5 C5          3.3884    5.5718    1.0920 C.ar      1 <0>        -0.0954
      6 C6          3.7667    6.2361   -0.0733 C.ar      1 <0>        -0.0179
      7 C7          3.8459    7.7178   -0.0921 C.2       1 <0>        -0.0903
      8 C8          3.5503    8.4605    1.0469 C.2       1 <0>        -0.1541
      9 C9          3.6337    9.8091    0.9908 C.2       1 <0>        -0.1656
     10 S1          4.1404   10.0866   -0.6978 S.3       1 <0>         0.0614
     11 C10         4.2161    8.3835   -1.2267 C.2       1 <0>        -0.1662
     12 O1          3.5473    2.1130   -0.0209 O.3       1 <0>        -0.2509
     13 C11         4.7051    1.4104   -0.1404 C.ar      1 <0>         0.1062
     14 C12         4.6688    0.0288   -0.2615 C.ar      1 <0>        -0.1044
     15 C13         5.8450   -0.6848   -0.3833 C.ar      1 <0>        -0.1013
     16 C14         7.0625   -0.0202   -0.3845 C.ar      1 <0>         0.0787
     17 C15         7.0990    1.3611   -0.2634 C.ar      1 <0>        -0.1621
     18 C16         5.9226    2.0754   -0.1469 C.ar      1 <0>        -0.1550
     19 O2          8.2205   -0.7229   -0.5040 O.3       1 <0>        -0.3243
     20 C17         9.4375    0.0260   -0.4977 C.3       1 <0>         0.0306
     21 C18        10.6246   -0.9286   -0.6410 C.3       1 <0>         0.0386
     22 H1         11.5457   -0.3520   -0.7254 H         1 <0>         0.1547
     23 C19        10.4419   -1.7838   -1.8967 C.3       1 <0>        -0.1400
     24 C20        11.6323   -2.7371   -2.0359 C.3       1 <0>        -0.1390
     25 C21        11.7447   -3.5864   -0.7666 C.3       1 <0>        -0.1489
     26 C22        11.8790   -2.6644    0.4473 C.3       1 <0>        -0.0066
     27 N1         10.6983   -1.7973    0.5399 N.4       1 <0>        -0.5045
     28 H2          4.3687    6.0180   -2.1240 H         1 <0>         0.1330
     29 H3          4.2322    3.5627   -2.0894 H         1 <0>         0.1321
     30 H4          3.0227    3.6791    2.0092 H         1 <0>         0.1365
     31 H5          3.1521    6.1349    1.9827 H         1 <0>         0.1365
     32 H6          3.2583    7.9672    1.9622 H         1 <0>         0.1382
     33 H7          3.4426   10.5331    1.7690 H         1 <0>         0.1904
     34 H8          4.4839    7.9829   -2.1933 H         1 <0>         0.1879
     35 H9          3.7209   -0.4887   -0.2601 H         1 <0>         0.1469
     36 H10         5.8168   -1.7603   -0.4772 H         1 <0>         0.1419
     37 H11         8.0470    1.8784   -0.2641 H         1 <0>         0.1304
     38 H12         5.9507    3.1513   -0.0568 H         1 <0>         0.1378
     39 H13         9.4350    0.7302   -1.3298 H         1 <0>         0.1079
     40 H14         9.5225    0.5732    0.4411 H         1 <0>         0.0861
     41 H15         9.5211   -2.3610   -1.8131 H         1 <0>         0.0987
     42 H16        10.3889   -1.1374   -2.7727 H         1 <0>         0.1115
     43 H17        11.4796   -3.3874   -2.8972 H         1 <0>         0.0964
     44 H18        12.5473   -2.1604   -2.1708 H         1 <0>         0.0820
     45 H19        10.8509   -4.2011   -0.6596 H         1 <0>         0.0895
     46 H20        12.6228   -4.2286   -0.8348 H         1 <0>         0.1132
     47 H21        11.9595   -3.2659    1.3527 H         1 <0>         0.1349
     48 H22        12.7732   -2.0505    0.3394 H         1 <0>         0.1308
     49 H23        10.7647   -1.2287    1.3708 H         1 <0>         0.4285
     50 H24         9.8667   -2.3665    0.5898 H         1 <0>         0.4326
@<TRIPOS>BOND
     1    1    6 ar
     2    1    2 ar
     3    1   28 1
     4    2    3 ar
     5    2   29 1
     6    3    4 ar
     7    3   12 1
     8    4    5 ar
     9    4   30 1
    10    5    6 ar
    11    5   31 1
    12    6    7 1
    13    7   11 2
    14    7    8 1
    15    8    9 2
    16    8   32 1
    17    9   10 1
    18    9   33 1
    19   10   11 1
    20   11   34 1
    21   12   13 1
    22   13   18 ar
    23   13   14 ar
    24   14   15 ar
    25   14   35 1
    26   15   16 ar
    27   15   36 1
    28   16   17 ar
    29   16   19 1
    30   17   18 ar
    31   17   37 1
    32   18   38 1
    33   19   20 1
    34   20   21 1
    35   20   39 1
    36   20   40 1
    37   21   22 1
    38   21   27 1
    39   21   23 1
    40   23   24 1
    41   23   41 1
    42   23   42 1
    43   24   25 1
    44   24   43 1
    45   24   44 1
    46   25   26 1
    47   25   45 1
    48   25   46 1
    49   26   27 1
    50   26   47 1
    51   26   48 1
    52   27   49 1
    53   27   50 1
@<TRIPOS>MOLECULE
CHEMBL479216
   50    52     0     0     0
SMALL
USER_CHARGES

@<TRIPOS>ATOM
      1 C1          2.9017    1.3063   -3.6671 C.ar      1 <0>        -0.1489
      2 C2          3.1561    2.0390   -2.5224 C.ar      1 <0>        -0.0802
      3 C3          3.3872    1.3921   -1.3240 C.ar      1 <0>        -0.1429
      4 C4          3.3635    0.0058   -1.2694 C.ar      1 <0>         0.1169
      5 C5          3.1075   -0.7271   -2.4196 C.ar      1 <0>        -0.1975
      6 C6          2.8776   -0.0752   -3.6155 C.ar      1 <0>        -0.0825
      7 O1          3.5909   -0.6330   -0.0919 O.3       1 <0>        -0.2582
      8 C7          3.4596   -1.9858   -0.0639 C.ar      1 <0>         0.0847
      9 C8          4.4466   -2.7899   -0.6158 C.ar      1 <0>        -0.1154
     10 C9          4.3137   -4.1640   -0.5877 C.ar      1 <0>        -0.1022
     11 C10         3.1924   -4.7411   -0.0066 C.ar      1 <0>         0.1282
     12 C11         2.2053   -3.9359    0.5460 C.ar      1 <0>        -0.1227
     13 C12         2.3415   -2.5621    0.5216 C.ar      1 <0>        -0.1017
     14 N1          3.0569   -6.1352    0.0218 N.am      1 <0>        -0.6663
     15 C13         4.1450   -6.9150    0.1778 C.2       1 <0>         0.5114
     16 O2          5.2495   -6.4149    0.2138 O.2       1 <0>        -0.5093
     17 C14         3.9896   -8.4084    0.3073 C.3       1 <0>        -0.1556
     18 C15         5.3677   -9.0522    0.4723 C.3       1 <0>        -0.1313
     19 C16         5.2098  -10.5683    0.6038 C.3       1 <0>         0.0144
     20 H1          4.6508  -10.9509   -0.2502 H         1 <0>         0.1523
     21 C17         6.5919  -11.2234    0.6435 C.3       1 <0>         0.0876
     22 N2          6.4416  -12.6807    0.6491 N.pl3     1 <0>        -0.4769
     23 C18         6.3258  -13.4631    1.7596 C.2       1 <0>        -0.0633
     24 C19         6.2063  -14.7458    1.3611 C.2       1 <0>        -0.1637
     25 C20         6.2499  -14.7557   -0.0471 C.2       1 <0>        -0.1856
     26 C21         6.3885  -13.4780   -0.4556 C.2       1 <0>        -0.0067
     27 N3          4.4847  -10.8795    1.8429 N.4       1 <0>        -0.6395
     28 H2          2.7172    1.8141   -4.6022 H         1 <0>         0.1277
     29 H3          3.1744    3.1180   -2.5654 H         1 <0>         0.1342
     30 H4          3.5865    1.9649   -0.4303 H         1 <0>         0.1340
     31 H5          3.0888   -1.8062   -2.3799 H         1 <0>         0.1263
     32 H6          2.6787   -0.6452   -4.5111 H         1 <0>         0.1264
     33 H7          5.3186   -2.3410   -1.0678 H         1 <0>         0.1378
     34 H8          5.0817   -4.7898   -1.0179 H         1 <0>         0.1450
     35 H9          1.3329   -4.3843    0.9980 H         1 <0>         0.1360
     36 H10         1.5757   -1.9359    0.9550 H         1 <0>         0.1411
     37 H11         2.1799   -6.5392   -0.0707 H         1 <0>         0.4141
     38 H12         3.3757   -8.6355    1.1789 H         1 <0>         0.0935
     39 H13         3.5092   -8.8027   -0.5881 H         1 <0>         0.1159
     40 H14         5.9815   -8.8251   -0.3993 H         1 <0>         0.1278
     41 H15         5.8481   -8.6579    1.3677 H         1 <0>         0.1055
     42 H16         7.1630  -10.9204   -0.2341 H         1 <0>         0.1373
     43 H17         7.1173  -10.9089    1.5452 H         1 <0>         0.1167
     44 H18         6.3297  -13.1156    2.7822 H         1 <0>         0.1659
     45 H19         6.0972  -15.6072    2.0033 H         1 <0>         0.1453
     46 H20         6.1804  -15.6261   -0.6827 H         1 <0>         0.1457
     47 H21         6.4493  -13.1442   -1.4809 H         1 <0>         0.1707
     48 H22         3.5732  -10.4475    1.8167 H         1 <0>         0.4353
     49 H23         4.3806  -11.8794    1.9296 H         1 <0>         0.4382
     50 H24         5.0021  -10.5254    2.6334 H         1 <0>         0.4347
@<TRIPOS>BOND
     1    1    6 ar
     2    1    2 ar
     3    1   28 1
     4    2    3 ar
     5    2   29 1
     6    3    4 ar
     7    3   30 1
     8    4    5 ar
     9    4    7 1
    10    5    6 ar
    11    5   31 1
    12    6   32 1
    13    7    8 1
    14    8   13 ar
    15    8    9 ar
    16    9   10 ar
    17    9   33 1
    18   10   11 ar
    19   10   34 1
    20   11   12 ar
    21   11   14 1
    22   12   13 ar
    23   12   35 1
    24   13   36 1
    25   14   15 am
    26   14   37 1
    27   15   16 2
    28   15   17 1
    29   17   18 1
    30   17   38 1
    31   17   39 1
    32   18   19 1
    33   18   40 1
    34   18   41 1
    35   19   20 1
    36   19   21 1
    37   19   27 1
    38   21   22 1
    39   21   42 1
    40   21   43 1
    41   22   26 1
    42   22   23 1
    43   23   24 2
    44   23   44 1
    45   24   25 1
    46   24   45 1
    47   25   26 2
    48   25   46 1
    49   26   47 1
    50   27   48 1
    51   27   49 1
    52   27   50 1
@<TRIPOS>MOLECULE
CHEMBL117549
   46    47     0     0     0
SMALL
USER_CHARGES

@<TRIPOS>ATOM
      1 C1         -0.0167    1.3781    0.0096 C.ar      1 <0>        -0.1237
      2 C2          1.1709    2.0855    0.0021 C.ar      1 <0>        -0.1175
      3 C3          2.3773    1.4107   -0.0130 C.ar      1 <0>        -0.1153
      4 C4          2.3960    0.0285   -0.0201 C.ar      1 <0>        -0.0776
      5 C5          1.2084   -0.6789   -0.0117 C.ar      1 <0>        -0.1159
      6 C6          0.0021   -0.0041    0.0020 C.ar      1 <0>        -0.1179
      7 C7          3.7112   -0.7071   -0.0376 C.3       1 <0>        -0.0397
      8 C8          4.1644   -0.9594    1.3773 C.ar      1 <0>        -0.1097
      9 C9          4.9522   -0.0267    2.0264 C.ar      1 <0>        -0.0731
     10 C10         5.3694   -0.2559    3.3232 C.ar      1 <0>        -0.1470
     11 C11         4.9969   -1.4228    3.9745 C.ar      1 <0>         0.1240
     12 C12         4.2060   -2.3568    3.3213 C.ar      1 <0>        -0.2050
     13 C13         3.7871   -2.1206    2.0262 C.ar      1 <0>        -0.0733
     14 O1          5.4064   -1.6507    5.2502 O.3       1 <0>        -0.3154
     15 C14         4.9849   -2.8733    5.8582 C.3       1 <0>         0.0587
     16 C15         5.5391   -2.9523    7.2821 C.3       1 <0>        -0.1163
     17 C16         5.0878   -4.2613    7.9331 C.3       1 <0>        -0.1469
     18 C17         5.6420   -4.3404    9.3570 C.3       1 <0>        -0.0087
     19 N1          5.2086   -5.5972    9.9820 N.4       1 <0>        -0.4851
     20 C18         5.7407   -5.6731   11.3491 C.3       1 <0>        -0.0833
     21 C19         5.2962   -6.9624   11.9903 C.2       1 <0>         0.4828
     22 O2          4.6006   -7.7455   11.3663 O.co2     1 <0>        -0.6765
     23 O3          5.6322   -7.2224   13.1331 O.co2     1 <0>        -0.6391
     24 H1         -0.9591    1.9053    0.0259 H         1 <0>         0.1213
     25 H2          1.1563    3.1654    0.0076 H         1 <0>         0.1221
     26 H3          3.3051    1.9634   -0.0196 H         1 <0>         0.1207
     27 H4          1.2231   -1.7588   -0.0176 H         1 <0>         0.1197
     28 H5         -0.9258   -0.5567    0.0082 H         1 <0>         0.1217
     29 H6          3.5884   -1.6586   -0.5549 H         1 <0>         0.0822
     30 H7          4.4573   -0.1052   -0.5563 H         1 <0>         0.0831
     31 H8          5.2420    0.8815    1.5189 H         1 <0>         0.1296
     32 H9          5.9853    0.4726    3.8295 H         1 <0>         0.1312
     33 H10         3.9147   -3.2660    3.8262 H         1 <0>         0.1263
     34 H11         3.1678   -2.8454    1.5188 H         1 <0>         0.1247
     35 H12         3.8958   -2.9068    5.8898 H         1 <0>         0.0653
     36 H13         5.3576   -3.7160    5.2759 H         1 <0>         0.0656
     37 H14         6.6281   -2.9189    7.2505 H         1 <0>         0.0849
     38 H15         5.1664   -2.1096    7.8643 H         1 <0>         0.0848
     39 H16         3.9987   -4.2948    7.9646 H         1 <0>         0.0899
     40 H17         5.4605   -5.1041    7.3508 H         1 <0>         0.0900
     41 H18         6.7310   -4.3069    9.3254 H         1 <0>         0.1264
     42 H19         5.2693   -3.4976    9.9392 H         1 <0>         0.1264
     43 H20         4.2005   -5.6282   10.0112 H         1 <0>         0.4273
     44 H21         6.8298   -5.6396   11.3175 H         1 <0>         0.1256
     45 H22         5.3680   -4.8303   11.9314 H         1 <0>         0.1255
     46 H23         5.5536   -6.3773    9.4430 H         1 <0>         0.4273
@<TRIPOS>BOND
     1    1    6 ar
     2    1    2 ar
     3    1   24 1
     4    2    3 ar
     5    2   25 1
     6    3    4 ar
     7    3   26 1
     8    4    5 ar
     9    4    7 1
    10    5    6 ar
    11    5   27 1
    12    6   28 1
    13    7    8 1
    14    7   29 1
    15    7   30 1
    16    8   13 ar
    17    8    9 ar
    18    9   10 ar
    19    9   31 1
    20   10   11 ar
    21   10   32 1
    22   11   12 ar
    23   11   14 1
    24   12   13 ar
    25   12   33 1
    26   13   34 1
    27   14   15 1
    28   15   16 1
    29   15   35 1
    30   15   36 1
    31   16   17 1
    32   16   37 1
    33   16   38 1
    34   17   18 1
    35   17   39 1
    36   17   40 1
    37   18   19 1
    38   18   41 1
    39   18   42 1
    40   19   20 1
    41   19   43 1
    42   19   46 1
    43   20   21 1
    44   20   44 1
    45   20   45 1
    46   21   22 2
    47   21   23 1
@<TRIPOS>MOLECULE
CHEMBL479217
   45    47     0     0     0
SMALL
USER_CHARGES

@<TRIPOS>ATOM
      1 C1          2.9017    1.3063   -3.6671 C.ar      1 <0>        -0.1492
      2 C2          3.1561    2.0390   -2.5224 C.ar      1 <0>        -0.0804
      3 C3          3.3872    1.3921   -1.3240 C.ar      1 <0>        -0.1433
      4 C4          3.3635    0.0058   -1.2694 C.ar      1 <0>         0.1172
      5 C5          3.1075   -0.7271   -2.4196 C.ar      1 <0>        -0.1973
      6 C6          2.8776   -0.0752   -3.6155 C.ar      1 <0>        -0.0825
      7 O1          3.5909   -0.6330   -0.0919 O.3       1 <0>        -0.2583
      8 C7          3.4596   -1.9858   -0.0639 C.ar      1 <0>         0.0834
      9 C8          4.4466   -2.7899   -0.6158 C.ar      1 <0>        -0.1154
     10 C9          4.3137   -4.1640   -0.5877 C.ar      1 <0>        -0.1026
     11 C10         3.1924   -4.7411   -0.0066 C.ar      1 <0>         0.1299
     12 C11         2.2053   -3.9359    0.5460 C.ar      1 <0>        -0.1229
     13 C12         2.3415   -2.5621    0.5216 C.ar      1 <0>        -0.1018
     14 N1          3.0569   -6.1352    0.0218 N.am      1 <0>        -0.6666
     15 C13         4.1450   -6.9150    0.1778 C.2       1 <0>         0.5120
     16 O2          5.2495   -6.4149    0.2138 O.2       1 <0>        -0.5083
     17 C14         3.9896   -8.4084    0.3073 C.3       1 <0>        -0.1550
     18 C15         5.3677   -9.0522    0.4723 C.3       1 <0>        -0.1290
     19 C16         5.2098  -10.5683    0.6038 C.3       1 <0>         0.1462
     20 H1          4.6508  -10.9509   -0.2502 H         1 <0>         0.1735
     21 C17         6.5711  -11.2136    0.6429 C.2       1 <0>         0.1694
     22 N2          7.1378  -11.8869   -0.3575 N.2       1 <0>        -0.5203
     23 H2          9.3234  -12.0849    1.8109 H         1 <0>         0.4579
     24 C18         8.3189  -12.3146    0.0083 C.2       1 <0>         0.2967
     25 N3          8.5337  -11.9152    1.2738 N.pl3     1 <0>        -0.4545
     26 N4          7.3897  -11.1988    1.6618 N.2       1 <0>        -0.2991
     27 N5          4.4847  -10.8795    1.8429 N.4       1 <0>        -0.6352
     28 H3          2.7172    1.8141   -4.6022 H         1 <0>         0.1275
     29 H4          3.1744    3.1180   -2.5654 H         1 <0>         0.1339
     30 H5          3.5865    1.9649   -0.4303 H         1 <0>         0.1338
     31 H6          3.0888   -1.8062   -2.3799 H         1 <0>         0.1266
     32 H7          2.6787   -0.6452   -4.5111 H         1 <0>         0.1264
     33 H8          5.3186   -2.3410   -1.0678 H         1 <0>         0.1373
     34 H9          5.0817   -4.7898   -1.0179 H         1 <0>         0.1451
     35 H10         1.3329   -4.3843    0.9980 H         1 <0>         0.1363
     36 H11         1.5757   -1.9359    0.9550 H         1 <0>         0.1407
     37 H12         2.1799   -6.5392   -0.0707 H         1 <0>         0.4143
     38 H13         3.3757   -8.6355    1.1789 H         1 <0>         0.0958
     39 H14         3.5092   -8.8027   -0.5881 H         1 <0>         0.1198
     40 H15         5.9815   -8.8251   -0.3993 H         1 <0>         0.1277
     41 H16         5.8481   -8.6579    1.3677 H         1 <0>         0.1064
     42 H17         9.0020  -12.8887   -0.6002 H         1 <0>         0.2409
     43 H18         5.0021  -10.5254    2.6334 H         1 <0>         0.4411
     44 H19         3.5732  -10.4475    1.8167 H         1 <0>         0.4404
     45 H20         4.3806  -11.8794    1.9296 H         1 <0>         0.4415
@<TRIPOS>BOND
     1    1    6 ar
     2    1    2 ar
     3    1   28 1
     4    2    3 ar
     5    2   29 1
     6    3    4 ar
     7    3   30 1
     8    4    5 ar
     9    4    7 1
    10    5    6 ar
    11    5   31 1
    12    6   32 1
    13    7    8 1
    14    8   13 ar
    15    8    9 ar
    16    9   10 ar
    17    9   33 1
    18   10   11 ar
    19   10   34 1
    20   11   12 ar
    21   11   14 1
    22   12   13 ar
    23   12   35 1
    24   13   36 1
    25   14   15 am
    26   14   37 1
    27   15   16 2
    28   15   17 1
    29   17   18 1
    30   17   38 1
    31   17   39 1
    32   18   19 1
    33   18   40 1
    34   18   41 1
    35   19   20 1
    36   19   27 1
    37   19   21 1
    38   21   22 1
    39   21   26 2
    40   22   24 2
    41   23   25 1
    42   24   42 1
    43   24   25 1
    44   25   26 1
    45   27   43 1
    46   27   44 1
    47   27   45 1
@<TRIPOS>MOLECULE
CHEMBL479217__1
   45    47     0     0     0
SMALL
USER_CHARGES

@<TRIPOS>ATOM
      1 C1          2.9017    1.3063   -3.6671 C.ar      1 <0>        -0.1490
      2 C2          3.1561    2.0390   -2.5224 C.ar      1 <0>        -0.0803
      3 C3          3.3872    1.3921   -1.3240 C.ar      1 <0>        -0.1431
      4 C4          3.3635    0.0058   -1.2694 C.ar      1 <0>         0.1170
      5 C5          3.1075   -0.7271   -2.4196 C.ar      1 <0>        -0.1973
      6 C6          2.8776   -0.0752   -3.6155 C.ar      1 <0>        -0.0825
      7 O1          3.5909   -0.6330   -0.0919 O.3       1 <0>        -0.2584
      8 C7          3.4596   -1.9858   -0.0639 C.ar      1 <0>         0.0844
      9 C8          4.4466   -2.7899   -0.6158 C.ar      1 <0>        -0.1153
     10 C9          4.3137   -4.1640   -0.5877 C.ar      1 <0>        -0.1019
     11 C10         3.1924   -4.7411   -0.0066 C.ar      1 <0>         0.1285
     12 C11         2.2053   -3.9359    0.5460 C.ar      1 <0>        -0.1228
     13 C12         2.3415   -2.5621    0.5216 C.ar      1 <0>        -0.1021
     14 N1          3.0569   -6.1352    0.0218 N.am      1 <0>        -0.6662
     15 C13         4.1450   -6.9150    0.1778 C.2       1 <0>         0.5113
     16 O2          5.2495   -6.4149    0.2138 O.2       1 <0>        -0.5058
     17 C14         3.9896   -8.4084    0.3073 C.3       1 <0>        -0.1558
     18 C15         5.3677   -9.0522    0.4723 C.3       1 <0>        -0.1286
     19 C16         5.2098  -10.5683    0.6038 C.3       1 <0>         0.1327
     20 H1          4.6508  -10.9509   -0.2502 H         1 <0>         0.1819
     21 C17         6.5711  -11.2136    0.6429 C.2       1 <0>         0.2227
     22 N2          7.5155  -11.0697   -0.2510 N.2       1 <0>        -0.4864
     23 H2          6.5524  -12.3199    2.3998 H         1 <0>         0.4364
     24 C18         8.5842  -11.7830    0.1017 C.2       1 <0>         0.2289
     25 N3          8.3335  -12.3936    1.2300 N.2       1 <0>        -0.2677
     26 N4          7.0290  -12.0329    1.6053 N.pl3     1 <0>        -0.4875
     27 N5          4.4847  -10.8795    1.8429 N.4       1 <0>        -0.6450
     28 H3          2.7172    1.8141   -4.6022 H         1 <0>         0.1276
     29 H4          3.1744    3.1180   -2.5654 H         1 <0>         0.1340
     30 H5          3.5865    1.9649   -0.4303 H         1 <0>         0.1339
     31 H6          3.0888   -1.8062   -2.3799 H         1 <0>         0.1266
     32 H7          2.6787   -0.6452   -4.5111 H         1 <0>         0.1265
     33 H8          5.3186   -2.3410   -1.0678 H         1 <0>         0.1378
     34 H9          5.0817   -4.7898   -1.0179 H         1 <0>         0.1458
     35 H10         1.3329   -4.3843    0.9980 H         1 <0>         0.1359
     36 H11         1.5757   -1.9359    0.9550 H         1 <0>         0.1407
     37 H12         2.1799   -6.5392   -0.0707 H         1 <0>         0.4140
     38 H13         3.3757   -8.6355    1.1789 H         1 <0>         0.0942
     39 H14         3.5092   -8.8027   -0.5881 H         1 <0>         0.1208
     40 H15         5.9815   -8.8251   -0.3993 H         1 <0>         0.1420
     41 H16         5.8481   -8.6579    1.3677 H         1 <0>         0.1058
     42 H17         9.5076  -11.8470   -0.4548 H         1 <0>         0.2378
     43 H18         5.0021  -10.5254    2.6334 H         1 <0>         0.4389
     44 H19         3.5732  -10.4475    1.8167 H         1 <0>         0.4497
     45 H20         4.3806  -11.8794    1.9296 H         1 <0>         0.4402
@<TRIPOS>BOND
     1    1    6 ar
     2    1    2 ar
     3    1   28 1
     4    2    3 ar
     5    2   29 1
     6    3    4 ar
     7    3   30 1
     8    4    5 ar
     9    4    7 1
    10    5    6 ar
    11    5   31 1
    12    6   32 1
    13    7    8 1
    14    8   13 ar
    15    8    9 ar
    16    9   10 ar
    17    9   33 1
    18   10   11 ar
    19   10   34 1
    20   11   12 ar
    21   11   14 1
    22   12   13 ar
    23   12   35 1
    24   13   36 1
    25   14   15 am
    26   14   37 1
    27   15   16 2
    28   15   17 1
    29   17   18 1
    30   17   38 1
    31   17   39 1
    32   18   19 1
    33   18   40 1
    34   18   41 1
    35   19   20 1
    36   19   27 1
    37   19   21 1
    38   21   22 2
    39   21   26 1
    40   22   24 1
    41   23   26 1
    42   24   42 1
    43   24   25 2
    44   25   26 1
    45   27   43 1
    46   27   44 1
    47   27   45 1
@<TRIPOS>MOLECULE
CHEMBL479215
   50    52     0     0     0
SMALL
USER_CHARGES

@<TRIPOS>ATOM
      1 C1          2.9017    1.3063   -3.6671 C.ar      1 <0>        -0.1492
      2 C2          3.1561    2.0390   -2.5224 C.ar      1 <0>        -0.0804
      3 C3          3.3872    1.3921   -1.3240 C.ar      1 <0>        -0.1431
      4 C4          3.3635    0.0058   -1.2694 C.ar      1 <0>         0.1172
      5 C5          3.1075   -0.7271   -2.4196 C.ar      1 <0>        -0.1974
      6 C6          2.8776   -0.0752   -3.6155 C.ar      1 <0>        -0.0825
      7 O1          3.5909   -0.6330   -0.0919 O.3       1 <0>        -0.2583
      8 C7          3.4596   -1.9858   -0.0639 C.ar      1 <0>         0.0839
      9 C8          4.4466   -2.7899   -0.6158 C.ar      1 <0>        -0.1154
     10 C9          4.3137   -4.1640   -0.5877 C.ar      1 <0>        -0.1023
     11 C10         3.1924   -4.7411   -0.0066 C.ar      1 <0>         0.1292
     12 C11         2.2053   -3.9359    0.5460 C.ar      1 <0>        -0.1230
     13 C12         2.3415   -2.5621    0.5216 C.ar      1 <0>        -0.1019
     14 N1          3.0569   -6.1352    0.0218 N.am      1 <0>        -0.6668
     15 C13         4.1450   -6.9150    0.1778 C.2       1 <0>         0.5109
     16 O2          5.2495   -6.4149    0.2138 O.2       1 <0>        -0.5080
     17 C14         3.9896   -8.4084    0.3073 C.3       1 <0>        -0.1561
     18 C15         5.3677   -9.0522    0.4723 C.3       1 <0>        -0.1294
     19 C16         5.2098  -10.5683    0.6038 C.3       1 <0>         0.0540
     20 H1          4.6508  -10.9509   -0.2502 H         1 <0>         0.1599
     21 C17         6.5919  -11.2234    0.6435 C.3       1 <0>        -0.1603
     22 S1          6.4058  -13.0279    0.6504 S.3       1 <0>         0.0345
     23 C18         8.0621  -13.6271    0.6968 C.2       1 <0>         0.0123
     24 N2          9.1949  -12.9517    0.7273 N.2       1 <0>        -0.2510
     25 N3         10.3933  -13.6266    0.7616 N.2       1 <0>        -0.3727
     26 C19        10.4041  -14.9451    0.7637 C.2       1 <0>         0.3689
     27 S2          8.6563  -15.3114    0.7229 S.3       1 <0>         0.0308
     28 N4         11.4863  -15.8169    0.7950 N.pl3     1 <0>        -0.7775
     29 N5          4.4847  -10.8795    1.8429 N.4       1 <0>        -0.6414
     30 H2          2.7172    1.8141   -4.6022 H         1 <0>         0.1275
     31 H3          3.1744    3.1180   -2.5654 H         1 <0>         0.1339
     32 H4          3.5865    1.9649   -0.4303 H         1 <0>         0.1339
     33 H5          3.0888   -1.8062   -2.3799 H         1 <0>         0.1265
     34 H6          2.6787   -0.6452   -4.5111 H         1 <0>         0.1264
     35 H7          5.3186   -2.3410   -1.0678 H         1 <0>         0.1375
     36 H8          5.0817   -4.7898   -1.0179 H         1 <0>         0.1453
     37 H9          1.3329   -4.3843    0.9980 H         1 <0>         0.1360
     38 H10         1.5757   -1.9359    0.9550 H         1 <0>         0.1407
     39 H11         2.1799   -6.5392   -0.0707 H         1 <0>         0.4140
     40 H12         3.3757   -8.6355    1.1789 H         1 <0>         0.0946
     41 H13         3.5092   -8.8027   -0.5881 H         1 <0>         0.1175
     42 H14         5.9815   -8.8251   -0.3993 H         1 <0>         0.1293
     43 H15         5.8481   -8.6579    1.3677 H         1 <0>         0.1070
     44 H16         7.1630  -10.9204   -0.2341 H         1 <0>         0.1469
     45 H17         7.1173  -10.9089    1.5452 H         1 <0>         0.1256
     46 H18        12.3906  -15.4668    0.8200 H         1 <0>         0.4289
     47 H19        11.3372  -16.7754    0.7918 H         1 <0>         0.4288
     48 H20         3.5732  -10.4475    1.8167 H         1 <0>         0.4373
     49 H21         4.3806  -11.8794    1.9296 H         1 <0>         0.4380
     50 H22         5.0021  -10.5254    2.6334 H         1 <0>         0.4390
@<TRIPOS>BOND
     1    1    6 ar
     2    1    2 ar
     3    1   30 1
     4    2    3 ar
     5    2   31 1
     6    3    4 ar
     7    3   32 1
     8    4    5 ar
     9    4    7 1
    10    5    6 ar
    11    5   33 1
    12    6   34 1
    13    7    8 1
    14    8   13 ar
    15    8    9 ar
    16    9   10 ar
    17    9   35 1
    18   10   11 ar
    19   10   36 1
    20   11   12 ar
    21   11   14 1
    22   12   13 ar
    23   12   37 1
    24   13   38 1
    25   14   15 am
    26   14   39 1
    27   15   16 2
    28   15   17 1
    29   17   18 1
    30   17   40 1
    31   17   41 1
    32   18   19 1
    33   18   42 1
    34   18   43 1
    35   19   20 1
    36   19   21 1
    37   19   29 1
    38   21   22 1
    39   21   44 1
    40   21   45 1
    41   22   23 1
    42   23   27 1
    43   23   24 2
    44   24   25 1
    45   25   26 2
    46   26   27 1
    47   26   28 1
    48   28   46 1
    49   28   47 1
    50   29   48 1
    51   29   49 1
    52   29   50 1
@<TRIPOS>MOLECULE
CHEMBL514699
   57    58     0     0     0
SMALL
USER_CHARGES

@<TRIPOS>ATOM
      1 C1         -0.0167    1.3781    0.0096 C.ar      1 <0>        -0.1037
      2 C2          1.1709    2.0855    0.0021 C.ar      1 <0>        -0.1215
      3 C3          2.3773    1.4107   -0.0130 C.ar      1 <0>        -0.0942
      4 C4          2.3960    0.0285   -0.0201 C.ar      1 <0>        -0.1071
      5 C5          1.2084   -0.6789   -0.0117 C.ar      1 <0>        -0.0944
      6 C6          0.0021   -0.0041    0.0020 C.ar      1 <0>        -0.1216
      7 C7          3.7112   -0.7071   -0.0376 C.3       1 <0>         0.1034
      8 O1          4.1410   -0.9464    1.3041 O.3       1 <0>        -0.3023
      9 C8          5.3186   -1.6049    1.4665 C.ar      1 <0>         0.1509
     10 C9          6.0483   -2.0075    0.3574 C.ar      1 <0>        -0.2051
     11 C10         7.2453   -2.6763    0.5252 C.ar      1 <0>        -0.0957
     12 C11         7.7160   -2.9451    1.7972 C.ar      1 <0>        -0.1693
     13 C12         6.9904   -2.5454    2.9042 C.ar      1 <0>        -0.0580
     14 C13         5.7959   -1.8708    2.7418 C.ar      1 <0>        -0.1411
     15 C14         9.0219   -3.6754    1.9773 C.3       1 <0>        -0.0866
     16 C15        10.1673   -2.6632    2.0441 C.3       1 <0>         0.0111
     17 H1          9.9641   -1.9359    2.8301 H         1 <0>         0.1530
     18 C16        11.4761   -3.3936    2.3512 C.3       1 <0>         0.1191
     19 N1         12.5899   -2.4434    2.2973 N.am      1 <0>        -0.5040
     20 C17        12.7746   -1.5640    3.3018 C.2       1 <0>         0.5001
     21 O2         12.0188   -1.5593    4.2503 O.2       1 <0>        -0.4953
     22 C18        13.9203   -0.5866    3.2465 C.3       1 <0>        -0.1516
     23 C19        13.9032    0.2908    4.4998 C.3       1 <0>        -0.1058
     24 C20        15.0663    1.2832    4.4435 C.3       1 <0>        -0.0938
     25 C21        15.0492    2.1606    5.6968 C.3       1 <0>        -0.1850
     26 C22        16.1949    3.1380    5.6415 C.2       1 <0>         0.4866
     27 O3         16.9547    3.1333    4.6879 O.co2     1 <0>        -0.7007
     28 O4         16.3620    3.9336    6.5502 O.co2     1 <0>        -0.7018
     29 O5         13.4723   -2.4489    1.1899 O.3       1 <0>        -0.3350
     30 N2         10.2843   -1.9703    0.7541 N.4       1 <0>        -0.6320
     31 H2         -0.9591    1.9053    0.0259 H         1 <0>         0.1277
     32 H3          1.1563    3.1654    0.0076 H         1 <0>         0.1283
     33 H4          3.3051    1.9634   -0.0196 H         1 <0>         0.1239
     34 H5          1.2231   -1.7588   -0.0176 H         1 <0>         0.1240
     35 H6         -0.9258   -0.5567    0.0082 H         1 <0>         0.1280
     36 H7          3.5884   -1.6586   -0.5549 H         1 <0>         0.0744
     37 H8          4.4573   -0.1052   -0.5563 H         1 <0>         0.0738
     38 H9          5.6808   -1.7984   -0.6363 H         1 <0>         0.1356
     39 H10         7.8138   -2.9899   -0.3379 H         1 <0>         0.1246
     40 H11         7.3600   -2.7569    3.8967 H         1 <0>         0.1387
     41 H12         5.2316   -1.5549    3.6068 H         1 <0>         0.1404
     42 H13         8.9916   -4.2513    2.9023 H         1 <0>         0.1236
     43 H14         9.1808   -4.3488    1.1351 H         1 <0>         0.0997
     44 H15        11.4217   -3.8336    3.3469 H         1 <0>         0.1330
     45 H16        11.6344   -4.1810    1.6142 H         1 <0>         0.1189
     46 H17        14.8622   -1.1331    3.1984 H         1 <0>         0.1071
     47 H18        13.8193    0.0418    2.3616 H         1 <0>         0.1017
     48 H19        12.9613    0.8373    4.5478 H         1 <0>         0.0659
     49 H20        14.0041   -0.3376    5.3846 H         1 <0>         0.0687
     50 H21        16.0082    0.7367    4.3955 H         1 <0>         0.0624
     51 H22        14.9653    1.9116    3.5587 H         1 <0>         0.0606
     52 H23        14.1073    2.7071    5.7449 H         1 <0>         0.0561
     53 H24        15.1502    1.5322    6.5817 H         1 <0>         0.0574
     54 H25        14.1751   -1.7868    1.2437 H         1 <0>         0.4086
     55 H26        10.4724   -2.6436    0.0265 H         1 <0>         0.4308
     56 H27         9.4211   -1.4886    0.5516 H         1 <0>         0.4329
     57 H28        11.0396   -1.3028    0.7981 H         1 <0>         0.4347
@<TRIPOS>BOND
     1    1    6 ar
     2    1    2 ar
     3    1   31 1
     4    2    3 ar
     5    2   32 1
     6    3    4 ar
     7    3   33 1
     8    4    5 ar
     9    4    7 1
    10    5    6 ar
    11    5   34 1
    12    6   35 1
    13    7    8 1
    14    7   36 1
    15    7   37 1
    16    8    9 1
    17    9   14 ar
    18    9   10 ar
    19   10   11 ar
    20   10   38 1
    21   11   12 ar
    22   11   39 1
    23   12   13 ar
    24   12   15 1
    25   13   14 ar
    26   13   40 1
    27   14   41 1
    28   15   16 1
    29   15   42 1
    30   15   43 1
    31   16   17 1
    32   16   18 1
    33   16   30 1
    34   18   19 1
    35   18   44 1
    36   18   45 1
    37   19   20 am
    38   19   29 1
    39   20   21 2
    40   20   22 1
    41   22   23 1
    42   22   46 1
    43   22   47 1
    44   23   24 1
    45   23   48 1
    46   23   49 1
    47   24   25 1
    48   24   50 1
    49   24   51 1
    50   25   26 1
    51   25   52 1
    52   25   53 1
    53   26   27 2
    54   26   28 1
    55   29   54 1
    56   30   55 1
    57   30   56 1
    58   30   57 1
@<TRIPOS>MOLECULE
CHEMBL68478
   55    57     0     0     0
SMALL
USER_CHARGES

@<TRIPOS>ATOM
      1 C1         -0.0167    1.3781    0.0096 C.ar      1 <0>        -0.1020
      2 C2          1.1709    2.0855    0.0021 C.ar      1 <0>        -0.1217
      3 C3          2.3773    1.4107   -0.0130 C.ar      1 <0>        -0.0949
      4 C4          2.3960    0.0285   -0.0201 C.ar      1 <0>        -0.1094
      5 C5          1.2084   -0.6789   -0.0117 C.ar      1 <0>        -0.0937
      6 C6          0.0021   -0.0041    0.0020 C.ar      1 <0>        -0.1205
      7 C7          3.7112   -0.7071   -0.0376 C.3       1 <0>         0.1038
      8 O1          4.1410   -0.9464    1.3041 O.3       1 <0>        -0.3015
      9 C8          5.3186   -1.6049    1.4665 C.ar      1 <0>         0.1545
     10 C9          6.0483   -2.0075    0.3574 C.ar      1 <0>        -0.2042
     11 C10         7.2453   -2.6763    0.5252 C.ar      1 <0>        -0.0943
     12 C11         7.7160   -2.9451    1.7972 C.ar      1 <0>        -0.1755
     13 C12         6.9904   -2.5454    2.9042 C.ar      1 <0>        -0.0595
     14 C13         5.7959   -1.8708    2.7418 C.ar      1 <0>        -0.1423
     15 C14         9.0219   -3.6754    1.9773 C.3       1 <0>        -0.0859
     16 C15        10.1673   -2.6632    2.0441 C.3       1 <0>         0.0017
     17 H1          9.9641   -1.9359    2.8301 H         1 <0>         0.1518
     18 C16        11.4761   -3.3936    2.3512 C.3       1 <0>         0.1157
     19 H2         11.6794   -4.1209    1.5652 H         1 <0>         0.1622
     20 C17        12.6043   -2.3966    2.4169 C.2       1 <0>         0.4043
     21 O2         13.1863   -2.2107    3.4594 O.2       1 <0>        -0.4485
     22 O3         12.9627   -1.7151    1.3174 O.3       1 <0>        -0.3738
     23 C18        14.0402   -0.7863    1.4523 C.3       1 <0>         0.1104
     24 C19        14.2989   -0.1208    0.1252 C.ar      1 <0>        -0.1168
     25 C20        15.1930   -0.6823   -0.7670 C.ar      1 <0>        -0.0912
     26 C21        15.4302   -0.0718   -1.9844 C.ar      1 <0>        -0.1165
     27 C22        14.7730    1.1000   -2.3096 C.ar      1 <0>        -0.0975
     28 C23        13.8782    1.6611   -1.4177 C.ar      1 <0>        -0.1200
     29 C24        13.6377    1.0482   -0.2022 C.ar      1 <0>        -0.1037
     30 O4         11.3624   -4.0677    3.6061 O.3       1 <0>        -0.4940
     31 N1         10.2843   -1.9703    0.7541 N.4       1 <0>        -0.6329
     32 H3         -0.9591    1.9053    0.0259 H         1 <0>         0.1287
     33 H4          1.1563    3.1654    0.0076 H         1 <0>         0.1284
     34 H5          3.3051    1.9634   -0.0196 H         1 <0>         0.1228
     35 H6          1.2231   -1.7588   -0.0176 H         1 <0>         0.1244
     36 H7         -0.9258   -0.5567    0.0082 H         1 <0>         0.1291
     37 H8          3.5884   -1.6586   -0.5549 H         1 <0>         0.0756
     38 H9          4.4573   -0.1052   -0.5563 H         1 <0>         0.0740
     39 H10         5.6808   -1.7984   -0.6363 H         1 <0>         0.1372
     40 H11         7.8138   -2.9899   -0.3379 H         1 <0>         0.1262
     41 H12         7.3600   -2.7569    3.8967 H         1 <0>         0.1374
     42 H13         5.2316   -1.5549    3.6068 H         1 <0>         0.1408
     43 H14         8.9916   -4.2513    2.9023 H         1 <0>         0.1312
     44 H15         9.1808   -4.3488    1.1351 H         1 <0>         0.1043
     45 H16        13.7780   -0.0307    2.1928 H         1 <0>         0.0882
     46 H17        14.9373   -1.3149    1.7746 H         1 <0>         0.0909
     47 H18        15.7064   -1.5978   -0.5129 H         1 <0>         0.1274
     48 H19        16.1293   -0.5102   -2.6812 H         1 <0>         0.1318
     49 H20        14.9588    1.5773   -3.2604 H         1 <0>         0.1310
     50 H21        13.3649    2.5767   -1.6717 H         1 <0>         0.1303
     51 H22        12.9359    1.4846    0.4931 H         1 <0>         0.1236
     52 H23        11.1812   -3.4806    4.3528 H         1 <0>         0.4014
     53 H24        10.4724   -2.6436    0.0265 H         1 <0>         0.4367
     54 H25         9.4211   -1.4886    0.5516 H         1 <0>         0.4390
     55 H26        11.0396   -1.3028    0.7981 H         1 <0>         0.4358
@<TRIPOS>BOND
     1    1    6 ar
     2    1    2 ar
     3    1   32 1
     4    2    3 ar
     5    2   33 1
     6    3    4 ar
     7    3   34 1
     8    4    5 ar
     9    4    7 1
    10    5    6 ar
    11    5   35 1
    12    6   36 1
    13    7    8 1
    14    7   37 1
    15    7   38 1
    16    8    9 1
    17    9   14 ar
    18    9   10 ar
    19   10   11 ar
    20   10   39 1
    21   11   12 ar
    22   11   40 1
    23   12   13 ar
    24   12   15 1
    25   13   14 ar
    26   13   41 1
    27   14   42 1
    28   15   16 1
    29   15   43 1
    30   15   44 1
    31   16   17 1
    32   16   18 1
    33   16   31 1
    34   18   19 1
    35   18   20 1
    36   18   30 1
    37   20   21 2
    38   20   22 1
    39   22   23 1
    40   23   24 1
    41   23   45 1
    42   23   46 1
    43   24   29 ar
    44   24   25 ar
    45   25   26 ar
    46   25   47 1
    47   26   27 ar
    48   26   48 1
    49   27   28 ar
    50   27   49 1
    51   28   29 ar
    52   28   50 1
    53   29   51 1
    54   30   52 1
    55   31   53 1
    56   31   54 1
    57   31   55 1
@<TRIPOS>MOLECULE
CHEMBL68478__1
   54    56     0     0     0
SMALL
USER_CHARGES

@<TRIPOS>ATOM
      1 C1         -0.0167    1.3781    0.0096 C.ar      1 <0>        -0.1082
      2 C2          1.1709    2.0855    0.0021 C.ar      1 <0>        -0.1228
      3 C3          2.3773    1.4107   -0.0130 C.ar      1 <0>        -0.0951
      4 C4          2.3960    0.0285   -0.0201 C.ar      1 <0>        -0.0997
      5 C5          1.2084   -0.6789   -0.0117 C.ar      1 <0>        -0.0953
      6 C6          0.0021   -0.0041    0.0020 C.ar      1 <0>        -0.1227
      7 C7          3.7112   -0.7071   -0.0376 C.3       1 <0>         0.1028
      8 O1          4.1410   -0.9464    1.3041 O.3       1 <0>        -0.3084
      9 C8          5.3186   -1.6049    1.4665 C.ar      1 <0>         0.1302
     10 C9          6.0483   -2.0075    0.3574 C.ar      1 <0>        -0.2049
     11 C10         7.2453   -2.6763    0.5252 C.ar      1 <0>        -0.0792
     12 C11         7.7160   -2.9451    1.7972 C.ar      1 <0>        -0.1247
     13 C12         6.9904   -2.5454    2.9042 C.ar      1 <0>        -0.0730
     14 C13         5.7959   -1.8708    2.7418 C.ar      1 <0>        -0.1468
     15 C14         9.0219   -3.6754    1.9773 C.3       1 <0>        -0.1073
     16 C15        10.1673   -2.6632    2.0441 C.3       1 <0>         0.0734
     17 H1          9.9641   -1.9359    2.8301 H         1 <0>         0.0893
     18 C16        11.4761   -3.3936    2.3512 C.3       1 <0>         0.1259
     19 H2         11.6794   -4.1209    1.5652 H         1 <0>         0.1355
     20 C17        12.6043   -2.3966    2.4169 C.2       1 <0>         0.4426
     21 O2         13.1863   -2.2107    3.4594 O.2       1 <0>        -0.5083
     22 O3         12.9627   -1.7151    1.3174 O.3       1 <0>        -0.3150
     23 C18        14.0402   -0.7863    1.4523 C.3       1 <0>         0.1063
     24 C19        14.2989   -0.1208    0.1252 C.ar      1 <0>        -0.0928
     25 C20        15.1930   -0.6823   -0.7670 C.ar      1 <0>        -0.0965
     26 C21        15.4302   -0.0718   -1.9844 C.ar      1 <0>        -0.1235
     27 C22        14.7730    1.1000   -2.3096 C.ar      1 <0>        -0.1099
     28 C23        13.8782    1.6611   -1.4177 C.ar      1 <0>        -0.1232
     29 C24        13.6377    1.0482   -0.2022 C.ar      1 <0>        -0.0898
     30 O4         11.3624   -4.0677    3.6061 O.3       1 <0>        -0.5267
     31 N1         10.2843   -1.9703    0.7541 N.3       1 <0>        -0.8272
     32 H3         -0.9591    1.9053    0.0259 H         1 <0>         0.1254
     33 H4          1.1563    3.1654    0.0076 H         1 <0>         0.1263
     34 H5          3.3051    1.9634   -0.0196 H         1 <0>         0.1242
     35 H6          1.2231   -1.7588   -0.0176 H         1 <0>         0.1241
     36 H7         -0.9258   -0.5567    0.0082 H         1 <0>         0.1263
     37 H8          3.5884   -1.6586   -0.5549 H         1 <0>         0.0716
     38 H9          4.4573   -0.1052   -0.5563 H         1 <0>         0.0720
     39 H10         5.6808   -1.7984   -0.6363 H         1 <0>         0.1283
     40 H11         7.8138   -2.9899   -0.3379 H         1 <0>         0.1228
     41 H12         7.3600   -2.7569    3.8967 H         1 <0>         0.1297
     42 H13         5.2316   -1.5549    3.6068 H         1 <0>         0.1314
     43 H14         8.9916   -4.2513    2.9023 H         1 <0>         0.0885
     44 H15         9.1808   -4.3488    1.1351 H         1 <0>         0.0762
     45 H16        13.7780   -0.0307    2.1928 H         1 <0>         0.0746
     46 H17        14.9373   -1.3149    1.7746 H         1 <0>         0.0733
     47 H18        15.7064   -1.5978   -0.5129 H         1 <0>         0.1226
     48 H19        16.1293   -0.5102   -2.6812 H         1 <0>         0.1246
     49 H20        14.9588    1.5773   -3.2604 H         1 <0>         0.1235
     50 H21        13.3649    2.5767   -1.6717 H         1 <0>         0.1244
     51 H22        12.9359    1.4846    0.4931 H         1 <0>         0.1235
     52 H23        11.1812   -3.4806    4.3528 H         1 <0>         0.3876
     53 H24        10.4728   -2.6235    0.0085 H         1 <0>         0.3440
     54 H25         9.4563   -1.4277    0.5587 H         1 <0>         0.3501
@<TRIPOS>BOND
     1    1    6 ar
     2    1    2 ar
     3    1   32 1
     4    2    3 ar
     5    2   33 1
     6    3    4 ar
     7    3   34 1
     8    4    5 ar
     9    4    7 1
    10    5    6 ar
    11    5   35 1
    12    6   36 1
    13    7    8 1
    14    7   37 1
    15    7   38 1
    16    8    9 1
    17    9   14 ar
    18    9   10 ar
    19   10   11 ar
    20   10   39 1
    21   11   12 ar
    22   11   40 1
    23   12   13 ar
    24   12   15 1
    25   13   14 ar
    26   13   41 1
    27   14   42 1
    28   15   16 1
    29   15   43 1
    30   15   44 1
    31   16   17 1
    32   16   18 1
    33   16   31 1
    34   18   19 1
    35   18   20 1
    36   18   30 1
    37   20   21 2
    38   20   22 1
    39   22   23 1
    40   23   24 1
    41   23   45 1
    42   23   46 1
    43   24   29 ar
    44   24   25 ar
    45   25   26 ar
    46   25   47 1
    47   26   27 ar
    48   26   48 1
    49   27   28 ar
    50   27   49 1
    51   28   29 ar
    52   28   50 1
    53   29   51 1
    54   30   52 1
    55   31   53 1
    56   31   54 1
@<TRIPOS>MOLECULE
CHEMBL481171
   68    73     0     0     0
SMALL
USER_CHARGES

@<TRIPOS>ATOM
      1 C1          5.5934   -2.1462    6.2314 C.2       1 <0>        -0.1888
      2 C2          4.8023   -3.0863    6.9215 C.2       1 <0>        -0.1883
      3 C3          4.2099   -3.8717    5.9989 C.2       1 <0>        -0.0190
      4 N1          4.6067   -3.4506    4.7622 N.pl3     1 <0>        -0.3954
      5 C4          5.4554   -2.3917    4.9124 C.2       1 <0>        -0.0175
      6 C5          4.2083   -4.0129    3.5397 C.ar      1 <0>         0.1094
      7 C6          3.3318   -5.0893    3.5234 C.ar      1 <0>        -0.1017
      8 C7          2.9397   -5.6419    2.3204 C.ar      1 <0>        -0.1645
      9 C8          3.4216   -5.1215    1.1278 C.ar      1 <0>         0.1101
     10 C9          4.2977   -4.0455    1.1437 C.ar      1 <0>        -0.1160
     11 C10         4.6861   -3.4891    2.3461 C.ar      1 <0>        -0.1012
     12 O1          3.0357   -5.6661   -0.0564 O.3       1 <0>        -0.2522
     13 C11         2.1697   -6.7140   -0.0250 C.ar      1 <0>         0.0282
     14 C12         0.8020   -6.4843   -0.0592 C.ar      1 <0>        -0.0720
     15 C13        -0.0781   -7.5480   -0.0269 C.ar      1 <0>        -0.1736
     16 C14         0.4063   -8.8478    0.0392 C.ar      1 <0>         0.2152
     17 C15         1.7755   -9.0769    0.0729 C.ar      1 <0>        -0.1863
     18 C16         2.6545   -8.0124    0.0353 C.ar      1 <0>        -0.0744
     19 N2         -0.4849   -9.9261    0.0724 N.pl3     1 <0>        -0.7414
     20 C17         0.0265  -11.2971    0.1422 C.3       1 <0>         0.1428
     21 C18         0.3526  -11.7917   -1.2700 C.3       1 <0>        -0.1623
     22 C19         0.7460  -13.2759   -1.1991 C.3       1 <0>         0.0354
     23 H1          1.1183  -13.6480   -2.1535 H         1 <0>         0.1502
     24 C20         1.7835  -13.4363   -0.0641 C.3       1 <0>        -0.1408
     25 C21         0.9441  -13.6862    1.2062 C.3       1 <0>        -0.1420
     26 C22        -0.5243  -13.6541    0.7232 C.3       1 <0>         0.0414
     27 H2         -1.1595  -14.3350    1.2899 H         1 <0>         0.1572
     28 C23        -1.0322  -12.2040    0.7759 C.3       1 <0>        -0.1520
     29 N3         -0.4490  -14.0266   -0.7299 N.4       1 <0>        -0.3959
     30 C24        -0.2439  -15.4732   -0.8826 C.3       1 <0>         0.0559
     31 C25        -1.5112  -16.2017   -0.5164 C.ar      1 <0>        -0.1783
     32 C26        -1.7242  -16.5977    0.7924 C.ar      1 <0>        -0.1148
     33 C27        -2.8815  -17.2652    1.1348 C.ar      1 <0>        -0.0836
     34 C28        -3.8403  -17.5410    0.1566 C.ar      1 <0>        -0.0904
     35 C29        -3.6186  -17.1377   -1.1627 C.ar      1 <0>        -0.0834
     36 C30        -2.4590  -16.4664   -1.4894 C.ar      1 <0>        -0.1101
     37 C31        -5.0806  -18.2550    0.5150 C.2       1 <0>         0.5090
     38 O2         -5.2715  -18.6070    1.6705 O.co2     1 <0>        -0.6724
     39 O3         -5.9179  -18.4949   -0.3435 O.co2     1 <0>        -0.6721
     40 H3          6.1962   -1.3686    6.6769 H         1 <0>         0.1419
     41 H4          4.6908   -3.1636    7.9930 H         1 <0>         0.1416
     42 H5          3.5377   -4.6920    6.2031 H         1 <0>         0.1633
     43 H6          5.9334   -1.8449    4.1131 H         1 <0>         0.1651
     44 H7          2.9570   -5.4946    4.4516 H         1 <0>         0.1335
     45 H8          2.2581   -6.4796    2.3077 H         1 <0>         0.1357
     46 H9          4.6729   -3.6409    0.2153 H         1 <0>         0.1429
     47 H10         5.3647   -2.6490    2.3583 H         1 <0>         0.1398
     48 H11         0.4254   -5.4734   -0.1106 H         1 <0>         0.1341
     49 H12        -1.1429   -7.3690   -0.0528 H         1 <0>         0.1313
     50 H13         2.1530  -10.0875    0.1247 H         1 <0>         0.1256
     51 H14         3.7195   -8.1907    0.0571 H         1 <0>         0.1324
     52 H15        -1.4412   -9.7657    0.0492 H         1 <0>         0.4063
     53 H16         0.9311  -11.3162    0.7500 H         1 <0>         0.1007
     54 H17        -0.5233  -11.6763   -1.9085 H         1 <0>         0.0920
     55 H18         1.1819  -11.2132   -1.6770 H         1 <0>         0.1130
     56 H19         2.4340  -14.2881   -0.2625 H         1 <0>         0.1007
     57 H20         2.3721  -12.5253    0.0433 H         1 <0>         0.1086
     58 H21         1.1820  -14.6607    1.6324 H         1 <0>         0.1021
     59 H22         1.1199  -12.8979    1.9381 H         1 <0>         0.1115
     60 H23        -1.1828  -11.9174    1.8167 H         1 <0>         0.1169
     61 H24        -1.9703  -12.1072    0.2294 H         1 <0>         0.0966
     62 H25         0.0172  -15.6959   -1.9172 H         1 <0>         0.1289
     63 H26         0.5639  -15.7969   -0.2263 H         1 <0>         0.1288
     64 H27        -0.9822  -16.3838    1.5474 H         1 <0>         0.1203
     65 H28        -3.0461  -17.5743    2.1564 H         1 <0>         0.1383
     66 H29        -4.3555  -17.3475   -1.9239 H         1 <0>         0.1383
     67 H30        -2.2883  -16.1502   -2.5079 H         1 <0>         0.1211
     68 H31        -1.2741  -13.7285   -1.2283 H         1 <0>         0.4244
@<TRIPOS>BOND
     1    1    5 2
     2    1    2 1
     3    1   40 1
     4    2    3 2
     5    2   41 1
     6    3    4 1
     7    3   42 1
     8    4    5 1
     9    4    6 1
    10    5   43 1
    11    6   11 ar
    12    6    7 ar
    13    7    8 ar
    14    7   44 1
    15    8    9 ar
    16    8   45 1
    17    9   10 ar
    18    9   12 1
    19   10   11 ar
    20   10   46 1
    21   11   47 1
    22   12   13 1
    23   13   18 ar
    24   13   14 ar
    25   14   15 ar
    26   14   48 1
    27   15   16 ar
    28   15   49 1
    29   16   17 ar
    30   16   19 1
    31   17   18 ar
    32   17   50 1
    33   18   51 1
    34   19   20 1
    35   19   52 1
    36   20   28 1
    37   20   21 1
    38   20   53 1
    39   21   22 1
    40   21   54 1
    41   21   55 1
    42   22   23 1
    43   22   29 1
    44   22   24 1
    45   24   25 1
    46   24   56 1
    47   24   57 1
    48   25   26 1
    49   25   58 1
    50   25   59 1
    51   26   27 1
    52   26   28 1
    53   26   29 1
    54   28   60 1
    55   28   61 1
    56   29   30 1
    57   29   68 1
    58   30   31 1
    59   30   62 1
    60   30   63 1
    61   31   36 ar
    62   31   32 ar
    63   32   33 ar
    64   32   64 1
    65   33   34 ar
    66   33   65 1
    67   34   35 ar
    68   34   37 1
    69   35   36 ar
    70   35   66 1
    71   36   67 1
    72   37   38 2
    73   37   39 1
@<TRIPOS>MOLECULE
CHEMBL162347
   46    48     0     0     0
SMALL
USER_CHARGES

@<TRIPOS>ATOM
      1 C1         -0.0167    1.3781    0.0096 C.ar      1 <0>        -0.1044
      2 C2          1.1709    2.0855    0.0021 C.ar      1 <0>        -0.1219
      3 C3          2.3773    1.4107   -0.0130 C.ar      1 <0>        -0.0951
      4 C4          2.3960    0.0285   -0.0201 C.ar      1 <0>        -0.1053
      5 C5          1.2084   -0.6789   -0.0117 C.ar      1 <0>        -0.0947
      6 C6          0.0021   -0.0041    0.0020 C.ar      1 <0>        -0.1216
      7 C7          3.7112   -0.7071   -0.0376 C.3       1 <0>         0.1032
      8 O1          4.1410   -0.9464    1.3041 O.3       1 <0>        -0.3050
      9 C8          5.3193   -1.6053    1.4666 C.ar      1 <0>         0.1159
     10 C9          6.0479   -2.0073    0.3570 C.ar      1 <0>        -0.1712
     11 C10         7.2448   -2.6767    0.5221 C.ar      1 <0>        -0.0985
     12 C11         7.7183   -2.9465    1.7975 C.ar      1 <0>         0.0692
     13 C12         6.9902   -2.5437    2.9072 C.ar      1 <0>        -0.1588
     14 C13         5.7954   -1.8705    2.7421 C.ar      1 <0>        -0.1128
     15 O2          8.8962   -3.6062    1.9601 O.3       1 <0>        -0.3256
     16 C14         9.3234   -3.8503    3.3017 C.3       1 <0>         0.0281
     17 C15        10.6585   -4.5973    3.2840 C.3       1 <0>         0.0013
     18 N1         11.6937   -3.7361    2.6972 N.4       1 <0>        -0.3911
     19 C16        11.3874   -3.4904    1.2718 C.3       1 <0>        -0.0010
     20 C17        12.7682   -3.4573    0.5704 C.3       1 <0>        -0.1459
     21 C18        13.5410   -4.5551    1.3479 C.3       1 <0>        -0.1421
     22 C19        13.0049   -4.4045    2.7871 C.3       1 <0>        -0.0134
     23 H1         -0.9591    1.9053    0.0259 H         1 <0>         0.1275
     24 H2          1.1563    3.1654    0.0076 H         1 <0>         0.1277
     25 H3          3.3051    1.9634   -0.0196 H         1 <0>         0.1236
     26 H4          1.2231   -1.7588   -0.0176 H         1 <0>         0.1241
     27 H5         -0.9258   -0.5567    0.0082 H         1 <0>         0.1279
     28 H6          3.5884   -1.6586   -0.5549 H         1 <0>         0.0737
     29 H7          4.4573   -0.1052   -0.5563 H         1 <0>         0.0733
     30 H8          5.6792   -1.7972   -0.6362 H         1 <0>         0.1404
     31 H9          7.8118   -2.9903   -0.3420 H         1 <0>         0.1351
     32 H10         7.3587   -2.7541    3.9003 H         1 <0>         0.1335
     33 H11         5.2302   -1.5536    3.6061 H         1 <0>         0.1393
     34 H12         9.4453   -2.9006    3.8226 H         1 <0>         0.0847
     35 H13         8.5761   -4.4539    3.8168 H         1 <0>         0.1081
     36 H14        10.9405   -4.8616    4.3031 H         1 <0>         0.1485
     37 H15        10.5594   -5.5043    2.6876 H         1 <0>         0.1400
     38 H16        10.7769   -4.2991    0.8700 H         1 <0>         0.1375
     39 H17        10.8782   -2.5341    1.1525 H         1 <0>         0.1343
     40 H18        12.6767   -3.7169   -0.4843 H         1 <0>         0.1159
     41 H19        13.2445   -2.4844    0.6916 H         1 <0>         0.0967
     42 H20        13.3089   -5.5437    0.9517 H         1 <0>         0.0984
     43 H21        14.6142   -4.3677    1.3148 H         1 <0>         0.1122
     44 H22        13.6912   -3.7968    3.3768 H         1 <0>         0.1323
     45 H23        12.8895   -5.3871    3.2446 H         1 <0>         0.1316
     46 H24        11.7260   -2.8573    3.1919 H         1 <0>         0.4245
@<TRIPOS>BOND
     1    1    6 ar
     2    1    2 ar
     3    1   23 1
     4    2    3 ar
     5    2   24 1
     6    3    4 ar
     7    3   25 1
     8    4    5 ar
     9    4    7 1
    10    5    6 ar
    11    5   26 1
    12    6   27 1
    13    7    8 1
    14    7   28 1
    15    7   29 1
    16    8    9 1
    17    9   14 ar
    18    9   10 ar
    19   10   11 ar
    20   10   30 1
    21   11   12 ar
    22   11   31 1
    23   12   13 ar
    24   12   15 1
    25   13   14 ar
    26   13   32 1
    27   14   33 1
    28   15   16 1
    29   16   17 1
    30   16   34 1
    31   16   35 1
    32   17   18 1
    33   17   36 1
    34   17   37 1
    35   18   22 1
    36   18   19 1
    37   18   46 1
    38   19   20 1
    39   19   38 1
    40   19   39 1
    41   20   21 1
    42   20   40 1
    43   20   41 1
    44   21   22 1
    45   21   42 1
    46   21   43 1
    47   22   44 1
    48   22   45 1
@<TRIPOS>MOLECULE
CHEMBL1098506
   52    55     0     0     0
SMALL
USER_CHARGES

@<TRIPOS>ATOM
      1 C1         -0.0163    1.3535    0.0095 C.2       1 <0>        -0.1570
      2 C2          1.1776    2.0410    0.0018 C.2       1 <0>        -0.1450
      3 C3          2.3470    1.3291   -0.0132 C.2       1 <0>        -0.1161
      4 S1          1.7525   -0.3544   -0.0166 S.3       1 <0>         0.0548
      5 C4          0.0021   -0.0041    0.0020 C.2       1 <0>        -0.1684
      6 C5          3.7395    1.8252   -0.0243 C.ar      1 <0>        -0.0023
      7 C6          3.9948    3.1974   -0.0140 C.ar      1 <0>        -0.0962
      8 C7          5.2967    3.6538   -0.0239 C.ar      1 <0>        -0.1078
      9 C8          6.3480    2.7546   -0.0444 C.ar      1 <0>        -0.0778
     10 C9          6.1019    1.3932   -0.0547 C.ar      1 <0>        -0.1076
     11 C10         4.8047    0.9235   -0.0392 C.ar      1 <0>        -0.1042
     12 C11         7.7676    3.2604   -0.0562 C.3       1 <0>        -0.0442
     13 C12         8.2572    3.4157    1.3606 C.ar      1 <0>        -0.0927
     14 C13         8.0744    4.6136    2.0265 C.ar      1 <0>        -0.0721
     15 C14         8.5228    4.7587    3.3251 C.ar      1 <0>        -0.1378
     16 C15         9.1565    3.7010    3.9611 C.ar      1 <0>         0.1081
     17 C16         9.3382    2.5000    3.2909 C.ar      1 <0>        -0.1989
     18 C17         8.8834    2.3583    1.9942 C.ar      1 <0>        -0.0726
     19 O1          9.5988    3.8414    5.2384 O.3       1 <0>        -0.3261
     20 C18        10.2421    2.7109    5.8302 C.3       1 <0>         0.0310
     21 C19        10.6678    3.0561    7.2586 C.3       1 <0>         0.0385
     22 H1         11.0779    2.1682    7.7397 H         1 <0>         0.1550
     23 C20         9.4524    3.5477    8.0477 C.3       1 <0>        -0.1402
     24 C21         9.8832    3.8916    9.4764 C.3       1 <0>        -0.1389
     25 C22        11.0022    4.9357    9.4243 C.3       1 <0>        -0.1489
     26 C23        12.1602    4.3928    8.5842 C.3       1 <0>        -0.0066
     27 N1         11.6901    4.1088    7.2230 N.4       1 <0>        -0.5045
     28 H2         -0.9549    1.8876    0.0258 H         1 <0>         0.1381
     29 H3          1.1908    3.1209    0.0071 H         1 <0>         0.1347
     30 H4         -0.8285   -0.6944    0.0062 H         1 <0>         0.1895
     31 H5          3.1750    3.9003    0.0014 H         1 <0>         0.1278
     32 H6          5.4956    4.7153   -0.0159 H         1 <0>         0.1267
     33 H7          6.9270    0.6965   -0.0708 H         1 <0>         0.1253
     34 H8          4.6139   -0.1395   -0.0431 H         1 <0>         0.1249
     35 H9          8.4025    2.5488   -0.5841 H         1 <0>         0.0868
     36 H10         7.8053    4.2254   -0.5615 H         1 <0>         0.0878
     37 H11         7.5811    5.4366    1.5309 H         1 <0>         0.1349
     38 H12         8.3804    5.6947    3.8446 H         1 <0>         0.1324
     39 H13         9.8313    1.6752    3.7839 H         1 <0>         0.1267
     40 H14         9.0207    1.4221    1.4735 H         1 <0>         0.1299
     41 H15         9.5504    1.8688    5.8507 H         1 <0>         0.1084
     42 H16        11.1212    2.4447    5.2433 H         1 <0>         0.0868
     43 H17         9.0416    4.4359    7.5676 H         1 <0>         0.0983
     44 H18         8.6948    2.7644    8.0745 H         1 <0>         0.1115
     45 H19         9.0331    4.2956   10.0262 H         1 <0>         0.0964
     46 H20        10.2465    2.9925    9.9740 H         1 <0>         0.0823
     47 H21        10.6237    5.8527    8.9727 H         1 <0>         0.0892
     48 H22        11.3525    5.1447   10.4351 H         1 <0>         0.1133
     49 H23        12.9588    5.1336    8.5452 H         1 <0>         0.1349
     50 H24        12.5382    3.4760    9.0367 H         1 <0>         0.1310
     51 H25        12.4674    3.8023    6.6573 H         1 <0>         0.4285
     52 H26        11.2951    4.9465    6.8226 H         1 <0>         0.4324
@<TRIPOS>BOND
     1    1    5 2
     2    1    2 1
     3    1   28 1
     4    2    3 2
     5    2   29 1
     6    3    4 1
     7    3    6 1
     8    4    5 1
     9    5   30 1
    10    6   11 ar
    11    6    7 ar
    12    7    8 ar
    13    7   31 1
    14    8    9 ar
    15    8   32 1
    16    9   10 ar
    17    9   12 1
    18   10   11 ar
    19   10   33 1
    20   11   34 1
    21   12   13 1
    22   12   35 1
    23   12   36 1
    24   13   18 ar
    25   13   14 ar
    26   14   15 ar
    27   14   37 1
    28   15   16 ar
    29   15   38 1
    30   16   17 ar
    31   16   19 1
    32   17   18 ar
    33   17   39 1
    34   18   40 1
    35   19   20 1
    36   20   21 1
    37   20   41 1
    38   20   42 1
    39   21   22 1
    40   21   27 1
    41   21   23 1
    42   23   24 1
    43   23   43 1
    44   23   44 1
    45   24   25 1
    46   24   45 1
    47   24   46 1
    48   25   26 1
    49   25   47 1
    50   25   48 1
    51   26   27 1
    52   26   49 1
    53   26   50 1
    54   27   51 1
    55   27   52 1
@<TRIPOS>MOLECULE
CHEMBL351207
   48    50     0     0     0
SMALL
USER_CHARGES

@<TRIPOS>ATOM
      1 C1         -0.0167    1.3781    0.0096 C.ar      1 <0>        -0.1209
      2 C2          1.1709    2.0855    0.0021 C.ar      1 <0>        -0.1169
      3 C3          2.3773    1.4107   -0.0130 C.ar      1 <0>        -0.1179
      4 C4          2.3960    0.0285   -0.0201 C.ar      1 <0>        -0.0892
      5 C5          1.2084   -0.6789   -0.0117 C.ar      1 <0>        -0.1175
      6 C6          0.0021   -0.0041    0.0020 C.ar      1 <0>        -0.1166
      7 C7          3.7112   -0.7071   -0.0376 C.3       1 <0>        -0.0718
      8 C8          4.1714   -0.9633    1.3989 C.3       1 <0>        -0.0776
      9 C9          5.4865   -1.6989    1.3815 C.ar      1 <0>        -0.0980
     10 C10         5.5038   -3.0814    1.3687 C.ar      1 <0>        -0.0754
     11 C11         6.7081   -3.7581    1.3531 C.ar      1 <0>        -0.1386
     12 C12         7.9007   -3.0494    1.3499 C.ar      1 <0>         0.1044
     13 C13         7.8806   -1.6623    1.3623 C.ar      1 <0>        -0.1985
     14 C14         6.6737   -0.9902    1.3726 C.ar      1 <0>        -0.0758
     15 O1          9.0867   -3.7128    1.3350 O.3       1 <0>        -0.3261
     16 C15        10.2745   -2.9183    1.3326 C.3       1 <0>         0.0284
     17 C16        11.5003   -3.8337    1.3153 C.3       1 <0>         0.0012
     18 N1         11.5326   -4.5850    0.0533 N.4       1 <0>        -0.3911
     19 C17        10.3795   -5.5084   -0.0057 C.3       1 <0>        -0.0011
     20 C18        10.9202   -6.7713   -0.7215 C.3       1 <0>        -0.1458
     21 C19        12.3619   -6.8593   -0.1553 C.3       1 <0>        -0.1420
     22 C20        12.7734   -5.3781   -0.0203 C.3       1 <0>        -0.0134
     23 H1         -0.9591    1.9053    0.0259 H         1 <0>         0.1233
     24 H2          1.1563    3.1654    0.0076 H         1 <0>         0.1232
     25 H3          3.3051    1.9634   -0.0196 H         1 <0>         0.1199
     26 H4          1.2231   -1.7588   -0.0176 H         1 <0>         0.1206
     27 H5         -0.9258   -0.5567    0.0082 H         1 <0>         0.1234
     28 H6          3.5884   -1.6586   -0.5549 H         1 <0>         0.0732
     29 H7          4.4573   -0.1052   -0.5563 H         1 <0>         0.0722
     30 H8          4.2941   -0.0118    1.9163 H         1 <0>         0.0771
     31 H9          3.4252   -1.5652    1.9176 H         1 <0>         0.0782
     32 H10         4.5751   -3.6327    1.3712 H         1 <0>         0.1351
     33 H11         6.7211   -4.8380    1.3439 H         1 <0>         0.1318
     34 H12         8.8077   -1.1083    1.3598 H         1 <0>         0.1265
     35 H13         6.6574    0.0897    1.3778 H         1 <0>         0.1299
     36 H14        10.2839   -2.2817    0.4478 H         1 <0>         0.0850
     37 H15        10.2977   -2.2968    2.2277 H         1 <0>         0.1083
     38 H16        12.4046   -3.2316    1.4029 H         1 <0>         0.1487
     39 H17        11.4452   -4.5305    2.1516 H         1 <0>         0.1402
     40 H18        10.0412   -5.7578    1.0000 H         1 <0>         0.1374
     41 H19         9.5670   -5.0646   -0.5811 H         1 <0>         0.1340
     42 H20        10.3395   -7.6528   -0.4497 H         1 <0>         0.1161
     43 H21        10.9330   -6.6320   -1.8024 H         1 <0>         0.0968
     44 H22        12.3645   -7.3502    0.8179 H         1 <0>         0.0985
     45 H23        13.0186   -7.3797   -0.8524 H         1 <0>         0.1124
     46 H24        13.3565   -5.0745   -0.8898 H         1 <0>         0.1324
     47 H25        13.3581   -5.2371    0.8887 H         1 <0>         0.1317
     48 H26        11.4924   -3.9444   -0.7252 H         1 <0>         0.4244
@<TRIPOS>BOND
     1    1    6 ar
     2    1    2 ar
     3    1   23 1
     4    2    3 ar
     5    2   24 1
     6    3    4 ar
     7    3   25 1
     8    4    5 ar
     9    4    7 1
    10    5    6 ar
    11    5   26 1
    12    6   27 1
    13    7    8 1
    14    7   28 1
    15    7   29 1
    16    8    9 1
    17    8   30 1
    18    8   31 1
    19    9   14 ar
    20    9   10 ar
    21   10   11 ar
    22   10   32 1
    23   11   12 ar
    24   11   33 1
    25   12   13 ar
    26   12   15 1
    27   13   14 ar
    28   13   34 1
    29   14   35 1
    30   15   16 1
    31   16   17 1
    32   16   36 1
    33   16   37 1
    34   17   18 1
    35   17   38 1
    36   17   39 1
    37   18   22 1
    38   18   19 1
    39   18   48 1
    40   19   20 1
    41   19   40 1
    42   19   41 1
    43   20   21 1
    44   20   42 1
    45   20   43 1
    46   21   22 1
    47   21   44 1
    48   21   45 1
    49   22   46 1
    50   22   47 1
@<TRIPOS>MOLECULE
CHEMBL479544
   58    61     0     0     0
SMALL
USER_CHARGES

@<TRIPOS>ATOM
      1 C1         -0.0587    3.3367   -1.7057 C.3       1 <0>        -0.0581
      2 N1         -0.3046    1.9163   -1.4228 N.4       1 <0>        -0.3808
      3 C2          0.4457    1.0898   -2.3778 C.3       1 <0>        -0.0199
      4 C3          1.9463    1.2922   -2.1585 C.3       1 <0>         0.1046
      5 N2          2.6945    0.4680   -3.1109 N.pl3     1 <0>        -0.7493
      6 C4          4.0936    0.4855   -3.1030 C.ar      1 <0>         0.1750
      7 C5          4.7733    1.2797   -2.1887 C.ar      1 <0>        -0.1537
      8 C6          6.1541    1.2961   -2.1813 C.ar      1 <0>        -0.1459
      9 C7          6.8623    0.5194   -3.0867 C.ar      1 <0>         0.0803
     10 C8          6.1840   -0.2739   -4.0007 C.ar      1 <0>        -0.0946
     11 C9          4.8032   -0.2957   -4.0056 C.ar      1 <0>        -0.1444
     12 O1          8.2219    0.5361   -3.0788 O.3       1 <0>        -0.2592
     13 C10         8.8445    1.3208   -2.1617 C.ar      1 <0>         0.1033
     14 C11         9.1693    0.8037   -0.9138 C.ar      1 <0>        -0.1264
     15 C12         9.8007    1.5969    0.0195 C.ar      1 <0>        -0.0562
     16 C13        10.1145    2.9218   -0.2905 C.ar      1 <0>        -0.0142
     17 C14         9.7868    3.4377   -1.5461 C.ar      1 <0>        -0.0750
     18 C15         9.1602    2.6367   -2.4760 C.ar      1 <0>        -0.1264
     19 C16        10.7910    3.7757    0.7075 C.2       1 <0>         0.2245
     20 N3         11.1530    3.4055    1.9137 N.2       1 <0>        -0.4674
     21 C17        11.7370    4.4478    2.5250 C.2       1 <0>        -0.0380
     22 C18        11.7317    5.4843    1.6680 C.2       1 <0>        -0.0644
     23 O2         11.1444    5.0607    0.5307 O.3       1 <0>        -0.1967
     24 C19        -1.7402    1.6327   -1.5520 C.3       1 <0>         0.0537
     25 C20        -2.4988    2.3876   -0.4911 C.ar      1 <0>        -0.1844
     26 C21        -2.7236    1.8025    0.7427 C.ar      1 <0>        -0.1081
     27 C22        -3.4175    2.4872    1.7182 C.ar      1 <0>        -0.0847
     28 C23        -3.8935    3.7749    1.4586 C.ar      1 <0>        -0.0878
     29 C24        -3.6624    4.3595    0.2108 C.ar      1 <0>        -0.0851
     30 C25        -2.9624    3.6648   -0.7534 C.ar      1 <0>        -0.1112
     31 C26        -4.6371    4.5137    2.4969 C.2       1 <0>         0.5086
     32 O3         -4.8381    3.9991    3.5879 O.co2     1 <0>        -0.6715
     33 O4         -5.0524    5.6406    2.2666 O.co2     1 <0>        -0.6718
     34 H1          1.0065    3.5471   -1.6099 H         1 <0>         0.1207
     35 H2         -0.3847    3.5669   -2.7200 H         1 <0>         0.1221
     36 H3         -0.6154    3.9499   -0.9971 H         1 <0>         0.1327
     37 H4          0.1946    0.0401   -2.2254 H         1 <0>         0.1351
     38 H5          0.1844    1.3819   -3.3948 H         1 <0>         0.1345
     39 H6          2.1974    2.3419   -2.3109 H         1 <0>         0.0794
     40 H7          2.2076    1.0001   -1.1414 H         1 <0>         0.0783
     41 H8          2.2201   -0.0899   -3.7469 H         1 <0>         0.4053
     42 H9          4.2221    1.8847   -1.4840 H         1 <0>         0.1221
     43 H10         6.6828    1.9140   -1.4706 H         1 <0>         0.1303
     44 H11         6.7360   -0.8780   -4.7055 H         1 <0>         0.1376
     45 H12         4.2753   -0.9167   -4.7142 H         1 <0>         0.1323
     46 H13         8.9263   -0.2211   -0.6748 H         1 <0>         0.1423
     47 H14        10.0522    1.1945    0.9897 H         1 <0>         0.1479
     48 H15        10.0276    4.4620   -1.7895 H         1 <0>         0.1405
     49 H16         8.9104    3.0336   -3.4488 H         1 <0>         0.1408
     50 H17        12.1394    4.4533    3.5272 H         1 <0>         0.1901
     51 H18        12.1276    6.4716    1.8548 H         1 <0>         0.2214
     52 H19        -2.0851    1.9456   -2.5375 H         1 <0>         0.1312
     53 H20        -1.9117    0.5632   -1.4297 H         1 <0>         0.1318
     54 H21        -2.3551    0.8070    0.9419 H         1 <0>         0.1223
     55 H22        -3.5928    2.0291    2.6804 H         1 <0>         0.1390
     56 H23        -4.0275    5.3545    0.0032 H         1 <0>         0.1389
     57 H24        -2.7792    4.1171   -1.7169 H         1 <0>         0.1222
     58 H25        -0.0028    1.7032   -0.4839 H         1 <0>         0.4262
@<TRIPOS>BOND
     1    1    2 1
     2    1   34 1
     3    1   35 1
     4    1   36 1
     5    2    3 1
     6    2   24 1
     7    2   58 1
     8    3    4 1
     9    3   37 1
    10    3   38 1
    11    4    5 1
    12    4   39 1
    13    4   40 1
    14    5    6 1
    15    5   41 1
    16    6   11 ar
    17    6    7 ar
    18    7    8 ar
    19    7   42 1
    20    8    9 ar
    21    8   43 1
    22    9   10 ar
    23    9   12 1
    24   10   11 ar
    25   10   44 1
    26   11   45 1
    27   12   13 1
    28   13   18 ar
    29   13   14 ar
    30   14   15 ar
    31   14   46 1
    32   15   16 ar
    33   15   47 1
    34   16   17 ar
    35   16   19 1
    36   17   18 ar
    37   17   48 1
    38   18   49 1
    39   19   23 1
    40   19   20 2
    41   20   21 1
    42   21   22 2
    43   21   50 1
    44   22   23 1
    45   22   51 1
    46   24   25 1
    47   24   52 1
    48   24   53 1
    49   25   30 ar
    50   25   26 ar
    51   26   27 ar
    52   26   54 1
    53   27   28 ar
    54   27   55 1
    55   28   29 ar
    56   28   31 1
    57   29   30 ar
    58   29   56 1
    59   30   57 1
    60   31   32 2
    61   31   33 1
@<TRIPOS>MOLECULE
CHEMBL516603
   65    69     0     0     0
SMALL
USER_CHARGES

@<TRIPOS>ATOM
      1 C1         -0.5711    3.2447   -1.0257 C.ar      1 <0>        -0.1259
      2 C2          0.4350    4.1867   -1.0751 C.ar      1 <0>        -0.0833
      3 C3          1.7387    3.7955   -1.3907 C.ar      1 <0>        -0.1107
      4 C4          2.0130    2.4510   -1.6541 C.ar      1 <0>        -0.0835
      5 C5          0.9968    1.5201   -1.6010 C.ar      1 <0>        -0.1259
      6 C6         -0.2920    1.9149   -1.2878 C.ar      1 <0>        -0.1285
      7 C7         -1.3969    0.8916   -1.2314 C.3       1 <0>        -0.0889
      8 C8         -2.0445    0.7636   -2.6116 C.3       1 <0>        -0.0088
      9 N1         -3.1215   -0.2339   -2.5566 N.4       1 <0>        -0.3833
     10 C9         -2.5497   -1.5535   -2.2629 C.3       1 <0>        -0.0150
     11 C10        -3.6745   -2.5816   -2.1243 C.3       1 <0>        -0.1401
     12 C11        -4.4641   -2.6460   -3.4348 C.3       1 <0>        -0.1534
     13 C12        -4.9933   -1.2484   -3.7697 C.3       1 <0>         0.1367
     14 C13        -3.8196   -0.2697   -3.8473 C.3       1 <0>        -0.0140
     15 N2         -5.9239   -0.8144   -2.7248 N.pl3     1 <0>        -0.7567
     16 C14        -7.2699   -1.1918   -2.7860 C.ar      1 <0>         0.1732
     17 C15        -7.7227   -1.9825   -3.8339 C.ar      1 <0>        -0.1496
     18 C16        -9.0512   -2.3550   -3.8933 C.ar      1 <0>        -0.1467
     19 C17        -9.9333   -1.9394   -2.9065 C.ar      1 <0>         0.0839
     20 C18        -9.4817   -1.1491   -1.8595 C.ar      1 <0>        -0.0954
     21 C19        -8.1524   -0.7806   -1.7957 C.ar      1 <0>        -0.1441
     22 O1        -11.2412   -2.3065   -2.9657 O.3       1 <0>        -0.2588
     23 C20       -11.6379   -3.0873   -4.0036 C.ar      1 <0>         0.1028
     24 C21       -11.5934   -4.4709   -3.8863 C.ar      1 <0>        -0.1264
     25 C22       -11.9947   -5.2666   -4.9374 C.ar      1 <0>        -0.0564
     26 C23       -12.4468   -4.6804   -6.1215 C.ar      1 <0>        -0.0138
     27 C24       -12.4905   -3.2893   -6.2354 C.ar      1 <0>        -0.0747
     28 C25       -12.0924   -2.5004   -5.1779 C.ar      1 <0>        -0.1259
     29 C26       -12.8775   -5.5299   -7.2509 C.2       1 <0>         0.2243
     30 N3        -12.8875   -6.8424   -7.2627 N.2       1 <0>        -0.4674
     31 C27       -13.3412   -7.2572   -8.4557 C.2       1 <0>        -0.0382
     32 C28       -13.6162   -6.1670   -9.1939 C.2       1 <0>        -0.0640
     33 O2        -13.3304   -5.0884   -8.4372 O.3       1 <0>        -0.1965
     34 C29         2.8203    4.7973   -1.4460 C.2       1 <0>         0.5117
     35 O3          2.5769    5.9734   -1.2153 O.co2     1 <0>        -0.6782
     36 O4          3.9604    4.4517   -1.7225 O.co2     1 <0>        -0.6784
     37 H1         -1.5784    3.5449   -0.7775 H         1 <0>         0.1146
     38 H2          0.2157    5.2242   -0.8707 H         1 <0>         0.1321
     39 H3          3.0183    2.1416   -1.8990 H         1 <0>         0.1320
     40 H4          1.2073    0.4806   -1.8047 H         1 <0>         0.1143
     41 H5         -0.9845   -0.0722   -0.9328 H         1 <0>         0.0891
     42 H6         -2.1470    1.2063   -0.5058 H         1 <0>         0.0879
     43 H7         -2.4569    1.7274   -2.9102 H         1 <0>         0.1334
     44 H8         -1.2944    0.4488   -3.3371 H         1 <0>         0.1337
     45 H9         -1.8851   -1.8498   -3.0745 H         1 <0>         0.1314
     46 H10        -1.9853   -1.5053   -1.3316 H         1 <0>         0.1344
     47 H11        -3.2477   -3.5610   -1.9080 H         1 <0>         0.1109
     48 H12        -4.3395   -2.2864   -1.3127 H         1 <0>         0.0872
     49 H13        -3.8116   -2.9905   -4.2371 H         1 <0>         0.0894
     50 H14        -5.3010   -3.3354   -3.3227 H         1 <0>         0.0963
     51 H15        -5.5093   -1.2749   -4.7295 H         1 <0>         0.1209
     52 H16        -4.1929    0.7263   -4.0857 H         1 <0>         0.1369
     53 H17        -3.1280   -0.5934   -4.6251 H         1 <0>         0.1431
     54 H18        -5.6071   -0.2654   -1.9906 H         1 <0>         0.3898
     55 H19        -7.0362   -2.3058   -4.6024 H         1 <0>         0.1254
     56 H20        -9.4036   -2.9696   -4.7084 H         1 <0>         0.1307
     57 H21       -10.1691   -0.8256   -1.0918 H         1 <0>         0.1376
     58 H22        -7.8000   -0.1690   -0.9782 H         1 <0>         0.1307
     59 H23       -11.2436   -4.9235   -2.9702 H         1 <0>         0.1421
     60 H24       -11.9592   -6.3421   -4.8457 H         1 <0>         0.1479
     61 H25       -12.8392   -2.8323   -7.1497 H         1 <0>         0.1408
     62 H26       -12.1300   -1.4245   -5.2636 H         1 <0>         0.1411
     63 H27       -13.4634   -8.2839   -8.7678 H         1 <0>         0.1901
     64 H28       -13.9984   -6.1575  -10.2039 H         1 <0>         0.2215
     65 H29        -3.7742    0.0171   -1.8292 H         1 <0>         0.4149
@<TRIPOS>BOND
     1    1    6 ar
     2    1    2 ar
     3    1   37 1
     4    2    3 ar
     5    2   38 1
     6    3    4 ar
     7    3   34 1
     8    4    5 ar
     9    4   39 1
    10    5    6 ar
    11    5   40 1
    12    6    7 1
    13    7    8 1
    14    7   41 1
    15    7   42 1
    16    8    9 1
    17    8   43 1
    18    8   44 1
    19    9   14 1
    20    9   10 1
    21    9   65 1
    22   10   11 1
    23   10   45 1
    24   10   46 1
    25   11   12 1
    26   11   47 1
    27   11   48 1
    28   12   13 1
    29   12   49 1
    30   12   50 1
    31   13   14 1
    32   13   15 1
    33   13   51 1
    34   14   52 1
    35   14   53 1
    36   15   16 1
    37   15   54 1
    38   16   21 ar
    39   16   17 ar
    40   17   18 ar
    41   17   55 1
    42   18   19 ar
    43   18   56 1
    44   19   20 ar
    45   19   22 1
    46   20   21 ar
    47   20   57 1
    48   21   58 1
    49   22   23 1
    50   23   28 ar
    51   23   24 ar
    52   24   25 ar
    53   24   59 1
    54   25   26 ar
    55   25   60 1
    56   26   27 ar
    57   26   29 1
    58   27   28 ar
    59   27   61 1
    60   28   62 1
    61   29   33 1
    62   29   30 2
    63   30   31 1
    64   31   32 2
    65   31   63 1
    66   32   33 1
    67   32   64 1
    68   34   35 2
    69   34   36 1
@<TRIPOS>MOLECULE
CHEMBL516603__1
   65    69     0     0     0
SMALL
USER_CHARGES

@<TRIPOS>ATOM
      1 C1          0.5949   -2.0748    0.5952 C.ar      1 <0>        -0.1258
      2 C2          1.8886   -1.6134    0.7199 C.ar      1 <0>        -0.0835
      3 C3          2.9607   -2.4803    0.4935 C.ar      1 <0>        -0.1107
      4 C4          2.7133   -3.8097    0.1422 C.ar      1 <0>        -0.0838
      5 C5          1.4144   -4.2572    0.0211 C.ar      1 <0>        -0.1260
      6 C6          0.3574   -3.3929    0.2468 C.ar      1 <0>        -0.1289
      7 C7         -1.0591   -3.8896    0.1130 C.3       1 <0>        -0.0886
      8 C8         -1.5358   -3.6895   -1.3270 C.3       1 <0>        -0.0073
      9 N1         -2.9166   -4.1737   -1.4575 N.4       1 <0>        -0.3782
     10 C9         -2.9492   -5.6228   -1.2265 C.3       1 <0>        -0.0157
     11 C10        -4.3955   -6.1194   -1.2811 C.3       1 <0>        -0.1424
     12 C11        -4.9850   -5.8072   -2.6596 C.3       1 <0>        -0.1557
     13 C12        -4.8780   -4.3020   -2.9206 C.3       1 <0>         0.1418
     14 C13        -3.4137   -3.8728   -2.8053 C.3       1 <0>        -0.0173
     15 N2         -5.3709   -4.0028   -4.2674 N.pl3     1 <0>        -0.7433
     16 C14        -6.7392   -3.8066   -4.4840 C.ar      1 <0>         0.1763
     17 C15        -7.6297   -3.8898   -3.4217 C.ar      1 <0>        -0.1558
     18 C16        -8.9799   -3.6956   -3.6362 C.ar      1 <0>        -0.1464
     19 C17        -9.4469   -3.4174   -4.9126 C.ar      1 <0>         0.0808
     20 C18        -8.5580   -3.3347   -5.9745 C.ar      1 <0>        -0.0937
     21 C19        -7.2068   -3.5230   -5.7605 C.ar      1 <0>        -0.1435
     22 O1        -10.7766   -3.2263   -5.1230 O.3       1 <0>        -0.2591
     23 C20       -11.6097   -3.3084   -4.0536 C.ar      1 <0>         0.1039
     24 C21       -11.8969   -2.1705   -3.3101 C.ar      1 <0>        -0.1265
     25 C22       -12.7413   -2.2499   -2.2241 C.ar      1 <0>        -0.0563
     26 C23       -13.3090   -3.4761   -1.8714 C.ar      1 <0>        -0.0146
     27 C24       -13.0182   -4.6175   -2.6215 C.ar      1 <0>        -0.0750
     28 C25       -12.1769   -4.5290   -3.7094 C.ar      1 <0>        -0.1265
     29 C26       -14.2144   -3.5656   -0.7075 C.2       1 <0>         0.2245
     30 N3        -14.5665   -2.5670    0.0684 N.2       1 <0>        -0.4674
     31 C27       -15.3969   -3.0315    1.0149 C.2       1 <0>        -0.0379
     32 C28       -15.5568   -4.3513    0.8115 C.2       1 <0>        -0.0646
     33 O2        -14.8208   -4.6823   -0.2685 O.3       1 <0>        -0.1968
     34 C29         4.3475   -1.9940    0.6245 C.2       1 <0>         0.5117
     35 O3          4.5607   -0.8297    0.9318 O.co2     1 <0>        -0.6781
     36 O4          5.2837   -2.7552    0.4257 O.co2     1 <0>        -0.6784
     37 H1         -0.2348   -1.4071    0.7742 H         1 <0>         0.1149
     38 H2          2.0725   -0.5844    0.9914 H         1 <0>         0.1321
     39 H3          3.5372   -4.4852   -0.0346 H         1 <0>         0.1320
     40 H4          1.2216   -5.2845   -0.2507 H         1 <0>         0.1142
     41 H5         -1.0977   -4.9495    0.3645 H         1 <0>         0.0891
     42 H6         -1.7053   -3.3315    0.7905 H         1 <0>         0.0892
     43 H7         -1.4971   -2.6296   -1.5786 H         1 <0>         0.1337
     44 H8         -0.8896   -4.2476   -2.0046 H         1 <0>         0.1324
     45 H9         -2.3635   -6.1261   -1.9958 H         1 <0>         0.1304
     46 H10        -2.5264   -5.8437   -0.2465 H         1 <0>         0.1367
     47 H11        -4.4175   -7.1959   -1.1112 H         1 <0>         0.1146
     48 H12        -4.9822   -5.6169   -0.5120 H         1 <0>         0.0883
     49 H13        -4.4303   -6.3502   -3.4247 H         1 <0>         0.0853
     50 H14        -6.0325   -6.1078   -2.6847 H         1 <0>         0.0953
     51 H15        -5.4746   -3.7617   -2.1856 H         1 <0>         0.0974
     52 H16        -3.3339   -2.8016   -2.9908 H         1 <0>         0.1363
     53 H17        -2.8181   -4.4134   -3.5409 H         1 <0>         0.1330
     54 H18        -4.7486   -3.9407   -5.0089 H         1 <0>         0.4060
     55 H19        -7.2663   -4.1066   -2.4280 H         1 <0>         0.1221
     56 H20        -9.6726   -3.7606   -2.8101 H         1 <0>         0.1297
     57 H21        -8.9223   -3.1185   -6.9679 H         1 <0>         0.1378
     58 H22        -6.5144   -3.4541   -6.5865 H         1 <0>         0.1328
     59 H23       -11.4575   -1.2226   -3.5835 H         1 <0>         0.1424
     60 H24       -12.9635   -1.3650   -1.6462 H         1 <0>         0.1479
     61 H25       -13.4550   -5.5676   -2.3517 H         1 <0>         0.1404
     62 H26       -11.9550   -5.4105   -4.2926 H         1 <0>         0.1408
     63 H27       -15.8551   -2.4490    1.8005 H         1 <0>         0.1901
     64 H28       -16.1648   -5.0211    1.4017 H         1 <0>         0.2214
     65 H29        -3.4993   -3.7131   -0.7745 H         1 <0>         0.4221
@<TRIPOS>BOND
     1    1    6 ar
     2    1    2 ar
     3    1   37 1
     4    2    3 ar
     5    2   38 1
     6    3    4 ar
     7    3   34 1
     8    4    5 ar
     9    4   39 1
    10    5    6 ar
    11    5   40 1
    12    6    7 1
    13    7    8 1
    14    7   41 1
    15    7   42 1
    16    8    9 1
    17    8   43 1
    18    8   44 1
    19    9   14 1
    20    9   10 1
    21    9   65 1
    22   10   11 1
    23   10   45 1
    24   10   46 1
    25   11   12 1
    26   11   47 1
    27   11   48 1
    28   12   13 1
    29   12   49 1
    30   12   50 1
    31   13   14 1
    32   13   15 1
    33   13   51 1
    34   14   52 1
    35   14   53 1
    36   15   16 1
    37   15   54 1
    38   16   21 ar
    39   16   17 ar
    40   17   18 ar
    41   17   55 1
    42   18   19 ar
    43   18   56 1
    44   19   20 ar
    45   19   22 1
    46   20   21 ar
    47   20   57 1
    48   21   58 1
    49   22   23 1
    50   23   28 ar
    51   23   24 ar
    52   24   25 ar
    53   24   59 1
    54   25   26 ar
    55   25   60 1
    56   26   27 ar
    57   26   29 1
    58   27   28 ar
    59   27   61 1
    60   28   62 1
    61   29   33 1
    62   29   30 2
    63   30   31 1
    64   31   32 2
    65   31   63 1
    66   32   33 1
    67   32   64 1
    68   34   35 2
    69   34   36 1
@<TRIPOS>MOLECULE
CHEMBL163178
   44    46     0     0     0
SMALL
USER_CHARGES

@<TRIPOS>ATOM
      1 C1         -0.0167    1.3781    0.0096 C.ar      1 <0>        -0.1192
      2 C2          1.1709    2.0855    0.0021 C.ar      1 <0>        -0.1165
      3 C3          2.3773    1.4107   -0.0130 C.ar      1 <0>        -0.1150
      4 C4          2.3960    0.0285   -0.0201 C.ar      1 <0>        -0.0857
      5 C5          1.2084   -0.6789   -0.0117 C.ar      1 <0>        -0.1154
      6 C6          0.0021   -0.0041    0.0020 C.ar      1 <0>        -0.1166
      7 C7          3.7112   -0.7071   -0.0376 C.3       1 <0>        -0.0379
      8 C8          4.1644   -0.9594    1.3773 C.ar      1 <0>        -0.1430
      9 C9          4.9555   -0.0287    2.0371 C.ar      1 <0>        -0.0329
     10 C10         5.3492   -0.2996    3.3358 C.ar      1 <0>        -0.1760
     11 C11         4.9421   -1.4865    3.9318 C.ar      1 <0>         0.3022
     12 N1          4.1886   -2.3489    3.2703 N.ar      1 <0>        -0.5349
     13 C12         3.7927   -2.1159    2.0332 C.ar      1 <0>         0.1463
     14 O1          5.3214   -1.7638    5.2046 O.3       1 <0>        -0.3217
     15 C13         4.8703   -3.0002    5.7612 C.3       1 <0>         0.0404
     16 C14         5.3940   -3.1365    7.1923 C.3       1 <0>         0.0016
     17 N2          4.7970   -2.0908    8.0338 N.4       1 <0>        -0.3961
     18 C15         3.3442   -2.3436    8.2115 C.3       1 <0>        -0.0096
     19 C16         3.0029   -1.5580    9.5026 C.3       1 <0>        -0.1447
     20 C17         4.2577   -1.7725   10.3797 C.3       1 <0>        -0.1448
     21 C18         5.3825   -2.1325    9.3914 C.3       1 <0>        -0.0087
     22 H1         -0.9591    1.9053    0.0259 H         1 <0>         0.1237
     23 H2          1.1563    3.1654    0.0076 H         1 <0>         0.1241
     24 H3          3.3051    1.9634   -0.0196 H         1 <0>         0.1211
     25 H4          1.2231   -1.7588   -0.0176 H         1 <0>         0.1214
     26 H5         -0.9258   -0.5567    0.0082 H         1 <0>         0.1239
     27 H6          3.5884   -1.6586   -0.5549 H         1 <0>         0.0900
     28 H7          4.4573   -0.1052   -0.5563 H         1 <0>         0.0896
     29 H8          5.2570    0.8857    1.5479 H         1 <0>         0.1475
     30 H9          5.9651    0.4023    3.8785 H         1 <0>         0.1440
     31 H10         3.1740   -2.8412    1.5259 H         1 <0>         0.1641
     32 H11         3.7805   -3.0187    5.7698 H         1 <0>         0.0891
     33 H12         5.2430   -3.8278    5.1576 H         1 <0>         0.1114
     34 H13         5.1253   -4.1168    7.5858 H         1 <0>         0.1490
     35 H14         6.4787   -3.0291    7.1941 H         1 <0>         0.1401
     36 H15         2.7796   -1.9548    7.3640 H         1 <0>         0.1327
     37 H16         3.1527   -3.4081    8.3469 H         1 <0>         0.1353
     38 H17         2.8614   -0.4995    9.2840 H         1 <0>         0.0978
     39 H18         2.1190   -1.9747    9.9854 H         1 <0>         0.1173
     40 H19         4.5049   -0.8569   10.9169 H         1 <0>         0.1054
     41 H20         4.0939   -2.5909   11.0807 H         1 <0>         0.1044
     42 H21         5.7570   -3.1339    9.6036 H         1 <0>         0.1315
     43 H22         6.1917   -1.4063    9.4692 H         1 <0>         0.1327
     44 H23         4.9450   -1.1830    7.6188 H         1 <0>         0.4322
@<TRIPOS>BOND
     1    1    6 ar
     2    1    2 ar
     3    1   22 1
     4    2    3 ar
     5    2   23 1
     6    3    4 ar
     7    3   24 1
     8    4    5 ar
     9    4    7 1
    10    5    6 ar
    11    5   25 1
    12    6   26 1
    13    7    8 1
    14    7   27 1
    15    7   28 1
    16    8   13 ar
    17    8    9 ar
    18    9   10 ar
    19    9   29 1
    20   10   11 ar
    21   10   30 1
    22   11   12 ar
    23   11   14 1
    24   12   13 ar
    25   13   31 1
    26   14   15 1
    27   15   16 1
    28   15   32 1
    29   15   33 1
    30   16   17 1
    31   16   34 1
    32   16   35 1
    33   17   21 1
    34   17   18 1
    35   17   44 1
    36   18   19 1
    37   18   36 1
    38   18   37 1
    39   19   20 1
    40   19   38 1
    41   19   39 1
    42   20   21 1
    43   20   40 1
    44   20   41 1
    45   21   42 1
    46   21   43 1
@<TRIPOS>MOLECULE
CHEMBL163179
   42    44     0     0     0
SMALL
USER_CHARGES

@<TRIPOS>ATOM
      1 C1         -0.0167    1.3790    0.0096 C.ar      1 <0>        -0.1072
      2 C2          1.1687    2.0919    0.0021 C.ar      1 <0>        -0.1161
      3 C3          2.3774    1.4258   -0.0129 C.ar      1 <0>        -0.1025
      4 C4          2.4022    0.0327   -0.0206 C.ar      1 <0>        -0.0632
      5 C5          1.2051   -0.6804   -0.0130 C.ar      1 <0>        -0.1057
      6 C6          0.0021   -0.0041    0.0020 C.ar      1 <0>        -0.1184
      7 C7          3.6987   -0.6890   -0.0373 C.ar      1 <0>         0.0063
      8 C8          4.8959    0.0249   -0.0396 C.ar      1 <0>        -0.1353
      9 C9          6.1006   -0.6486   -0.0552 C.ar      1 <0>        -0.0723
     10 C10         6.1241   -2.0308   -0.0686 C.ar      1 <0>        -0.2060
     11 C11         4.9365   -2.7490   -0.0664 C.ar      1 <0>         0.1176
     12 C12         3.7228   -2.0811   -0.0450 C.ar      1 <0>        -0.1389
     13 O1          4.9641   -4.1077   -0.0800 O.3       1 <0>        -0.3287
     14 C13         6.2503   -4.7303   -0.0962 C.3       1 <0>         0.0274
     15 C14         6.0807   -6.2508   -0.1098 C.3       1 <0>         0.0039
     16 N1          5.4349   -6.6602   -1.3642 N.4       1 <0>        -0.3959
     17 C15         6.3556   -6.4422   -2.5092 C.3       1 <0>        -0.0105
     18 C16         5.8024   -7.3980   -3.5959 C.3       1 <0>        -0.1448
     19 C17         5.3605   -8.6330   -2.7776 C.3       1 <0>        -0.1450
     20 C18         5.1545   -8.1123   -1.3431 C.3       1 <0>        -0.0087
     21 H1         -0.9603    1.9042    0.0260 H         1 <0>         0.1279
     22 H2          1.1483    3.1717    0.0077 H         1 <0>         0.1295
     23 H3          3.3023    1.9834   -0.0191 H         1 <0>         0.1278
     24 H4          1.2186   -1.7603   -0.0193 H         1 <0>         0.1235
     25 H5         -0.9264   -0.5558    0.0079 H         1 <0>         0.1276
     26 H6          4.8808    1.1047   -0.0296 H         1 <0>         0.1342
     27 H7          7.0275   -0.0942   -0.0573 H         1 <0>         0.1341
     28 H8          7.0693   -2.5532   -0.0811 H         1 <0>         0.1277
     29 H9          2.7979   -2.6387   -0.0388 H         1 <0>         0.1354
     30 H10         6.7942   -4.4174   -0.9874 H         1 <0>         0.0855
     31 H11         6.8081   -4.4349    0.7924 H         1 <0>         0.1086
     32 H12         7.0585   -6.7262   -0.0326 H         1 <0>         0.1488
     33 H13         5.4612   -6.5549    0.7339 H         1 <0>         0.1414
     34 H14         6.3099   -5.4071   -2.8478 H         1 <0>         0.1333
     35 H15         7.3758   -6.7153   -2.2399 H         1 <0>         0.1350
     36 H16         4.9507   -6.9491   -4.1071 H         1 <0>         0.0983
     37 H17         6.5832   -7.6660   -4.3076 H         1 <0>         0.1174
     38 H18         4.4270   -9.0340   -3.1723 H         1 <0>         0.1056
     39 H19         6.1384   -9.3963   -2.7950 H         1 <0>         0.1045
     40 H20         5.8435   -8.6137   -0.6635 H         1 <0>         0.1315
     41 H21         4.1256   -8.2872   -1.0288 H         1 <0>         0.1329
     42 H22         4.5796   -6.1426   -1.5007 H         1 <0>         0.4336
@<TRIPOS>BOND
     1    1    6 ar
     2    1    2 ar
     3    1   21 1
     4    2    3 ar
     5    2   22 1
     6    3    4 ar
     7    3   23 1
     8    4    5 ar
     9    4    7 1
    10    5    6 ar
    11    5   24 1
    12    6   25 1
    13    7   12 ar
    14    7    8 ar
    15    8    9 ar
    16    8   26 1
    17    9   10 ar
    18    9   27 1
    19   10   11 ar
    20   10   28 1
    21   11   12 ar
    22   11   13 1
    23   12   29 1
    24   13   14 1
    25   14   15 1
    26   14   30 1
    27   14   31 1
    28   15   16 1
    29   15   32 1
    30   15   33 1
    31   16   20 1
    32   16   17 1
    33   16   42 1
    34   17   18 1
    35   17   34 1
    36   17   35 1
    37   18   19 1
    38   18   36 1
    39   18   37 1
    40   19   20 1
    41   19   38 1
    42   19   39 1
    43   20   40 1
    44   20   41 1
@<TRIPOS>MOLECULE
CHEMBL162865
   45    47     0     0     0
SMALL
USER_CHARGES

@<TRIPOS>ATOM
      1 C1         -0.0167    1.3781    0.0096 C.ar      1 <0>        -0.1197
      2 C2          1.1709    2.0855    0.0021 C.ar      1 <0>        -0.1157
      3 C3          2.3773    1.4107   -0.0130 C.ar      1 <0>        -0.1139
      4 C4          2.3960    0.0285   -0.0201 C.ar      1 <0>        -0.0827
      5 C5          1.2084   -0.6789   -0.0117 C.ar      1 <0>        -0.1159
      6 C6          0.0021   -0.0041    0.0020 C.ar      1 <0>        -0.1177
      7 C7          3.7112   -0.7071   -0.0376 C.3       1 <0>        -0.0469
      8 C8          4.1644   -0.9594    1.3773 C.ar      1 <0>        -0.0620
      9 C9          4.9524   -0.0262    2.0260 C.ar      1 <0>        -0.0901
     10 C10         5.3700   -0.2541    3.3223 C.ar      1 <0>        -0.0871
     11 C11         4.9971   -1.4229    3.9752 C.ar      1 <0>        -0.1017
     12 C12         4.2049   -2.3583    3.3204 C.ar      1 <0>        -0.1283
     13 C13         3.7867   -2.1211    2.0259 C.ar      1 <0>        -0.0939
     14 S1          5.5281   -1.7184    5.6291 S.3       1 <0>        -0.0650
     15 C14         4.8074   -3.3317    6.0398 C.3       1 <0>        -0.1629
     16 C15         5.1956   -3.7148    7.4693 C.3       1 <0>         0.0127
     17 N1          4.6120   -5.0212    7.8018 N.4       1 <0>        -0.3882
     18 C16         3.1378   -4.9138    7.8341 C.3       1 <0>        -0.0154
     19 C17         2.6976   -5.8560    8.9822 C.3       1 <0>        -0.1427
     20 C18         3.8314   -5.6382   10.0185 C.3       1 <0>        -0.1422
     21 C19         5.0807   -5.4499    9.1324 C.3       1 <0>        -0.0124
     22 H1         -0.9591    1.9053    0.0259 H         1 <0>         0.1235
     23 H2          1.1563    3.1654    0.0076 H         1 <0>         0.1243
     24 H3          3.3051    1.9634   -0.0196 H         1 <0>         0.1216
     25 H4          1.2231   -1.7588   -0.0176 H         1 <0>         0.1191
     26 H5         -0.9258   -0.5567    0.0082 H         1 <0>         0.1228
     27 H6          3.5884   -1.6586   -0.5549 H         1 <0>         0.0863
     28 H7          4.4573   -0.1052   -0.5563 H         1 <0>         0.0882
     29 H8          5.2418    0.8819    1.5180 H         1 <0>         0.1342
     30 H9          5.9859    0.4748    3.8280 H         1 <0>         0.1320
     31 H10         3.9132   -3.2676    3.8247 H         1 <0>         0.1167
     32 H11         3.1677   -2.8456    1.5178 H         1 <0>         0.1288
     33 H12         3.7217   -3.2753    5.9609 H         1 <0>         0.1087
     34 H13         5.1834   -4.0846    5.3470 H         1 <0>         0.1092
     35 H14         6.2813   -3.7711    7.5482 H         1 <0>         0.1411
     36 H15         4.8195   -2.9619    8.1620 H         1 <0>         0.1403
     37 H16         2.8366   -3.8884    8.0481 H         1 <0>         0.1337
     38 H17         2.7123   -5.2454    6.8869 H         1 <0>         0.1342
     39 H18         1.7332   -5.5517    9.3889 H         1 <0>         0.1180
     40 H19         2.6687   -6.8928    8.6471 H         1 <0>         0.0996
     41 H20         3.6430   -4.7448   10.6138 H         1 <0>         0.0998
     42 H21         3.9415   -6.5133   10.6589 H         1 <0>         0.1144
     43 H22         5.6217   -6.3925    9.0490 H         1 <0>         0.1346
     44 H23         5.7280   -4.6851    9.5616 H         1 <0>         0.1336
     45 H24         4.8858   -5.7023    7.1096 H         1 <0>         0.4267
@<TRIPOS>BOND
     1    1    6 ar
     2    1    2 ar
     3    1   22 1
     4    2    3 ar
     5    2   23 1
     6    3    4 ar
     7    3   24 1
     8    4    5 ar
     9    4    7 1
    10    5    6 ar
    11    5   25 1
    12    6   26 1
    13    7    8 1
    14    7   27 1
    15    7   28 1
    16    8   13 ar
    17    8    9 ar
    18    9   10 ar
    19    9   29 1
    20   10   11 ar
    21   10   30 1
    22   11   12 ar
    23   11   14 1
    24   12   13 ar
    25   12   31 1
    26   13   32 1
    27   14   15 1
    28   15   16 1
    29   15   33 1
    30   15   34 1
    31   16   17 1
    32   16   35 1
    33   16   36 1
    34   17   21 1
    35   17   18 1
    36   17   45 1
    37   18   19 1
    38   18   37 1
    39   18   38 1
    40   19   20 1
    41   19   39 1
    42   19   40 1
    43   20   21 1
    44   20   41 1
    45   20   42 1
    46   21   43 1
    47   21   44 1
@<TRIPOS>MOLECULE
CHEMBL482256
   45    48     0     0     0
SMALL
USER_CHARGES

@<TRIPOS>ATOM
      1 C1          0.0093   -3.3012    3.9494 C.ar      1 <0>        -0.1109
      2 C2          1.1700   -3.6800    4.6067 C.ar      1 <0>        -0.0990
      3 C3          2.3971   -3.5548    3.9879 C.ar      1 <0>        -0.0844
      4 C4          2.4729   -3.0474    2.7007 C.ar      1 <0>         0.0027
      5 C5          1.3011   -2.6630    2.0320 C.ar      1 <0>         0.0445
      6 C6          0.0667   -2.7949    2.6695 C.ar      1 <0>        -0.0665
      7 N1          1.6831   -2.2107    0.8062 N.2       1 <0>        -0.4709
      8 C7          2.9828   -2.3026    0.7117 C.2       1 <0>         0.4238
      9 O1          3.4945   -2.8079    1.8472 O.3       1 <0>        -0.2329
     10 O2          3.7078   -1.9415   -0.3706 O.3       1 <0>        -0.1736
     11 C8          5.0631   -2.0038   -0.2808 C.ar      1 <0>         0.0075
     12 C9          5.8002   -0.8429   -0.0979 C.ar      1 <0>        -0.0583
     13 C10         7.1769   -0.9062   -0.0068 C.ar      1 <0>        -0.1400
     14 C11         7.8225   -2.1305   -0.0982 C.ar      1 <0>         0.1558
     15 C12         7.0855   -3.2912   -0.2816 C.ar      1 <0>        -0.2010
     16 C13         5.7084   -3.2287   -0.3665 C.ar      1 <0>        -0.0656
     17 O3          9.1778   -2.1928   -0.0085 O.3       1 <0>        -0.2901
     18 C14         9.7760   -3.4865   -0.1111 C.3       1 <0>         0.0624
     19 C15        11.2956   -3.3569    0.0119 C.3       1 <0>         0.0539
     20 N2         11.6374   -2.8518    1.3483 N.3       1 <0>        -0.5315
     21 C16        12.9918   -2.2804    1.3650 C.3       1 <0>         0.0185
     22 C17        13.2837   -1.7137    2.7570 C.3       1 <0>         0.0627
     23 O4         13.1204   -2.7480    3.7311 O.3       1 <0>        -0.3847
     24 C18        11.8125   -3.3265    3.7428 C.3       1 <0>         0.0636
     25 C19        11.5057   -3.9095    2.3608 C.3       1 <0>         0.0137
     26 H1         -0.9458   -3.4079    4.4421 H         1 <0>         0.1404
     27 H2          1.1133   -4.0754    5.6101 H         1 <0>         0.1426
     28 H3          3.2970   -3.8516    4.5061 H         1 <0>         0.1358
     29 H4         -0.8400   -2.5009    2.1617 H         1 <0>         0.1396
     30 H5          5.2976    0.1104   -0.0271 H         1 <0>         0.1450
     31 H6          7.7508   -0.0024    0.1353 H         1 <0>         0.1462
     32 H7          7.5883   -4.2444   -0.3535 H         1 <0>         0.1387
     33 H8          5.1342   -4.1331   -0.5042 H         1 <0>         0.1359
     34 H9          9.4000   -4.1251    0.6882 H         1 <0>         0.0656
     35 H10         9.5259   -3.9270   -1.0762 H         1 <0>         0.0715
     36 H11        11.7567   -4.3334   -0.1364 H         1 <0>         0.0639
     37 H12        11.6634   -2.6629   -0.7439 H         1 <0>         0.0900
     38 H13        13.7180   -3.0583    1.1291 H         1 <0>         0.0443
     39 H14        13.0593   -1.4823    0.6256 H         1 <0>         0.0892
     40 H15        14.3072   -1.3403    2.7907 H         1 <0>         0.1000
     41 H16        12.5913   -0.8996    2.9710 H         1 <0>         0.0616
     42 H17        11.7720   -4.1195    4.4896 H         1 <0>         0.0991
     43 H18        11.0773   -2.5592    3.9855 H         1 <0>         0.0610
     44 H19        10.4884   -4.3006    2.3484 H         1 <0>         0.0845
     45 H20        12.2081   -4.7134    2.1408 H         1 <0>         0.0454
@<TRIPOS>BOND
     1    1    6 ar
     2    1    2 ar
     3    1   26 1
     4    2    3 ar
     5    2   27 1
     6    3    4 ar
     7    3   28 1
     8    4    9 1
     9    4    5 ar
    10    5    6 ar
    11    5    7 1
    12    6   29 1
    13    7    8 2
    14    8    9 1
    15    8   10 1
    16   10   11 1
    17   11   16 ar
    18   11   12 ar
    19   12   13 ar
    20   12   30 1
    21   13   14 ar
    22   13   31 1
    23   14   15 ar
    24   14   17 1
    25   15   16 ar
    26   15   32 1
    27   16   33 1
    28   17   18 1
    29   18   19 1
    30   18   34 1
    31   18   35 1
    32   19   20 1
    33   19   36 1
    34   19   37 1
    35   20   25 1
    36   20   21 1
    37   21   22 1
    38   21   38 1
    39   21   39 1
    40   22   23 1
    41   22   40 1
    42   22   41 1
    43   23   24 1
    44   24   25 1
    45   24   42 1
    46   24   43 1
    47   25   44 1
    48   25   45 1
@<TRIPOS>MOLECULE
CHEMBL482256__1
   46    49     0     0     0
SMALL
USER_CHARGES

@<TRIPOS>ATOM
      1 C1          0.1619   -4.3408    4.2212 C.ar      1 <0>        -0.1085
      2 C2          1.3669   -4.6626    4.8270 C.ar      1 <0>        -0.0924
      3 C3          2.5619   -4.4172    4.1817 C.ar      1 <0>        -0.0878
      4 C4          2.5605   -3.8454    2.9196 C.ar      1 <0>         0.0042
      5 C5          1.3436   -3.5182    2.3031 C.ar      1 <0>         0.0415
      6 C6          0.1424   -3.7718    2.9668 C.ar      1 <0>        -0.0610
      7 N1          1.6534   -2.9813    1.0911 N.2       1 <0>        -0.4584
      8 C7          2.9528   -2.9714    0.9567 C.2       1 <0>         0.4157
      9 O1          3.5350   -3.4903    2.0514 O.3       1 <0>        -0.2376
     10 O2          3.6156   -2.5065   -0.1259 O.3       1 <0>        -0.1750
     11 C8          4.9739   -2.4689   -0.0753 C.ar      1 <0>         0.0374
     12 C9          5.6277   -1.2603    0.1149 C.ar      1 <0>        -0.0590
     13 C10         7.0074   -1.2222    0.1663 C.ar      1 <0>        -0.1276
     14 C11         7.7392   -2.3923    0.0276 C.ar      1 <0>         0.1309
     15 C12         7.0855   -3.6008   -0.1630 C.ar      1 <0>        -0.1895
     16 C13         5.7056   -3.6399   -0.2082 C.ar      1 <0>        -0.0686
     17 O3          9.0975   -2.3547    0.0782 O.3       1 <0>        -0.3242
     18 C14         9.7869   -3.5973   -0.0720 C.3       1 <0>         0.0224
     19 C15        11.2956   -3.3569    0.0119 C.3       1 <0>         0.0002
     20 N2         11.6374   -2.8518    1.3483 N.4       1 <0>        -0.3875
     21 C16        13.0588   -2.4810    1.3831 C.3       1 <0>        -0.0437
     22 C17        13.4124   -1.9549    2.7764 C.3       1 <0>         0.0352
     23 O4         13.1068   -2.9568    3.7504 O.3       1 <0>        -0.3554
     24 C18        11.7372   -3.3689    3.7394 C.3       1 <0>         0.0371
     25 C19        11.3805   -3.8977    2.3479 C.3       1 <0>        -0.0504
     26 H1         -0.7671   -4.5416    4.7339 H         1 <0>         0.1438
     27 H2          1.3703   -5.1081    5.8108 H         1 <0>         0.1452
     28 H3          3.4966   -4.6702    4.6599 H         1 <0>         0.1351
     29 H4         -0.7986   -3.5225    2.4991 H         1 <0>         0.1427
     30 H5          5.0579   -0.3492    0.2225 H         1 <0>         0.1529
     31 H6          7.5164   -0.2812    0.3140 H         1 <0>         0.1486
     32 H7          7.6554   -4.5117   -0.2717 H         1 <0>         0.1402
     33 H8          5.1965   -4.5815   -0.3515 H         1 <0>         0.1434
     34 H9          9.4831   -4.2797    0.7219 H         1 <0>         0.0890
     35 H10         9.5419   -4.0341   -1.0401 H         1 <0>         0.1147
     36 H11        11.8233   -4.2934   -0.1686 H         1 <0>         0.1526
     37 H12        11.5890   -2.6239   -0.7396 H         1 <0>         0.1462
     38 H13        13.6685   -3.3564    1.1595 H         1 <0>         0.1407
     39 H14        13.2505   -1.7051    0.6420 H         1 <0>         0.1447
     40 H15        14.4759   -1.7196    2.8176 H         1 <0>         0.1438
     41 H16        12.8318   -1.0561    2.9843 H         1 <0>         0.0821
     42 H17        11.5883   -4.1571    4.4775 H         1 <0>         0.1429
     43 H18        11.0992   -2.5186    3.9802 H         1 <0>         0.0818
     44 H19        10.3262   -4.1734    2.3229 H         1 <0>         0.1394
     45 H20        11.9908   -4.7726    2.1239 H         1 <0>         0.1421
     46 H21        11.0730   -2.0417    1.5563 H         1 <0>         0.4300
@<TRIPOS>BOND
     1    1    6 ar
     2    1    2 ar
     3    1   26 1
     4    2    3 ar
     5    2   27 1
     6    3    4 ar
     7    3   28 1
     8    4    9 1
     9    4    5 ar
    10    5    6 ar
    11    5    7 1
    12    6   29 1
    13    7    8 2
    14    8    9 1
    15    8   10 1
    16   10   11 1
    17   11   16 ar
    18   11   12 ar
    19   12   13 ar
    20   12   30 1
    21   13   14 ar
    22   13   31 1
    23   14   15 ar
    24   14   17 1
    25   15   16 ar
    26   15   32 1
    27   16   33 1
    28   17   18 1
    29   18   19 1
    30   18   34 1
    31   18   35 1
    32   19   20 1
    33   19   36 1
    34   19   37 1
    35   20   25 1
    36   20   21 1
    37   20   46 1
    38   21   22 1
    39   21   38 1
    40   21   39 1
    41   22   23 1
    42   22   40 1
    43   22   41 1
    44   23   24 1
    45   24   25 1
    46   24   42 1
    47   24   43 1
    48   25   44 1
    49   25   45 1
@<TRIPOS>MOLECULE
CHEMBL520287
   45    48     0     0     0
SMALL
USER_CHARGES

@<TRIPOS>ATOM
      1 C1          0.6048    0.2163   -4.7048 C.ar      1 <0>        -0.1042
      2 C2          1.6603    0.1254   -5.6007 C.ar      1 <0>        -0.1008
      3 C3          2.8220   -0.5179   -5.2153 C.ar      1 <0>        -0.0609
      4 C4          2.9130   -1.0553   -3.9556 C.ar      1 <0>        -0.1451
      5 C5          1.8589   -0.9819   -3.0169 C.ar      1 <0>         0.1046
      6 C6          0.6866   -0.3173   -3.4452 C.ar      1 <0>        -0.0674
      7 N1          2.1007   -1.5588   -1.8195 N.2       1 <0>        -0.5212
      8 C7          3.2372   -2.1506   -1.5383 C.2       1 <0>         0.3450
      9 S1          4.1615   -1.9406   -3.0534 S.3       1 <0>        -0.0319
     10 O1          3.6140   -2.7637   -0.3923 O.3       1 <0>        -0.1816
     11 C8          4.8205   -3.3905   -0.3705 C.ar      1 <0>         0.0094
     12 C9          5.9852   -2.6486   -0.2385 C.ar      1 <0>        -0.0705
     13 C10         7.2107   -3.2853   -0.2164 C.ar      1 <0>        -0.1373
     14 C11         7.2768   -4.6664   -0.3263 C.ar      1 <0>         0.1566
     15 C12         6.1122   -5.4082   -0.4588 C.ar      1 <0>        -0.2011
     16 C13         4.8863   -4.7722   -0.4747 C.ar      1 <0>        -0.0559
     17 O2          8.4833   -5.2931   -0.3046 O.3       1 <0>        -0.2898
     18 C14         8.4768   -6.7173   -0.4224 C.3       1 <0>         0.0623
     19 C15         9.9143   -7.2392   -0.3780 C.3       1 <0>         0.0538
     20 N2         10.5040   -6.9389    0.9335 N.3       1 <0>        -0.5314
     21 C16        11.9721   -6.9882    0.8748 C.3       1 <0>         0.0185
     22 C17        12.5451   -6.6117    2.2436 C.3       1 <0>         0.0627
     23 O3         12.0131   -7.4930    3.2364 O.3       1 <0>        -0.3848
     24 C18        10.5856   -7.4699    3.3212 C.3       1 <0>         0.0634
     25 C19         9.9927   -7.8552    1.9633 C.3       1 <0>         0.0137
     26 H1         -0.3004    0.7230   -5.0054 H         1 <0>         0.1369
     27 H2          1.5753    0.5524   -6.5891 H         1 <0>         0.1405
     28 H3          3.6525   -0.5973   -5.9012 H         1 <0>         0.1348
     29 H4         -0.1533   -0.2288   -2.7721 H         1 <0>         0.1357
     30 H5          5.9337   -1.5732   -0.1533 H         1 <0>         0.1426
     31 H6          8.1175   -2.7077   -0.1139 H         1 <0>         0.1455
     32 H7          6.1638   -6.4835   -0.5451 H         1 <0>         0.1404
     33 H8          3.9793   -5.3502   -0.5727 H         1 <0>         0.1405
     34 H9          7.9083   -7.1475    0.4021 H         1 <0>         0.0664
     35 H10         8.0161   -7.0014   -1.3686 H         1 <0>         0.0715
     36 H11         9.9144   -8.3174   -0.5382 H         1 <0>         0.0639
     37 H12        10.5007   -6.7558   -1.1594 H         1 <0>         0.0898
     38 H13        12.2922   -7.9962    0.6110 H         1 <0>         0.0442
     39 H14        12.3302   -6.2838    0.1240 H         1 <0>         0.0891
     40 H15        13.6311   -6.7022    2.2210 H         1 <0>         0.0998
     41 H16        12.2698   -5.5847    2.4835 H         1 <0>         0.0617
     42 H17        10.2544   -8.1811    4.0779 H         1 <0>         0.0992
     43 H18        10.2533   -6.4679    3.5924 H         1 <0>         0.0613
     44 H19         8.9060   -7.7835    2.0071 H         1 <0>         0.0849
     45 H20        10.2812   -8.8770    1.7169 H         1 <0>         0.0453
@<TRIPOS>BOND
     1    1    6 ar
     2    1    2 ar
     3    1   26 1
     4    2    3 ar
     5    2   27 1
     6    3    4 ar
     7    3   28 1
     8    4    9 1
     9    4    5 ar
    10    5    6 ar
    11    5    7 1
    12    6   29 1
    13    7    8 2
    14    8    9 1
    15    8   10 1
    16   10   11 1
    17   11   16 ar
    18   11   12 ar
    19   12   13 ar
    20   12   30 1
    21   13   14 ar
    22   13   31 1
    23   14   15 ar
    24   14   17 1
    25   15   16 ar
    26   15   32 1
    27   16   33 1
    28   17   18 1
    29   18   19 1
    30   18   34 1
    31   18   35 1
    32   19   20 1
    33   19   36 1
    34   19   37 1
    35   20   25 1
    36   20   21 1
    37   21   22 1
    38   21   38 1
    39   21   39 1
    40   22   23 1
    41   22   40 1
    42   22   41 1
    43   23   24 1
    44   24   25 1
    45   24   42 1
    46   24   43 1
    47   25   44 1
    48   25   45 1
@<TRIPOS>MOLECULE
CHEMBL520287__1
   46    49     0     0     0
SMALL
USER_CHARGES

@<TRIPOS>ATOM
      1 C1          0.0572   -0.2407   -4.2585 C.ar      1 <0>        -0.1026
      2 C2          1.1139   -0.1910   -5.1562 C.ar      1 <0>        -0.0918
      3 C3          2.3239   -0.7636   -4.8100 C.ar      1 <0>        -0.0639
      4 C4          2.4608   -1.3709   -3.5868 C.ar      1 <0>        -0.1375
      5 C5          1.4070   -1.4407   -2.6475 C.ar      1 <0>         0.0981
      6 C6          0.1846   -0.8449   -3.0352 C.ar      1 <0>        -0.0614
      7 N1          1.6972   -2.0715   -1.4886 N.2       1 <0>        -0.5084
      8 C7          2.8776   -2.5883   -1.2431 C.2       1 <0>         0.3333
      9 S1          3.7780   -2.2103   -2.7400 S.3       1 <0>        -0.0374
     10 O1          3.3051   -3.2412   -0.1376 O.3       1 <0>        -0.1852
     11 C8          4.5542   -3.7779   -0.1562 C.ar      1 <0>         0.0406
     12 C9          5.6638   -2.9576   -0.0139 C.ar      1 <0>        -0.0732
     13 C10         6.9327   -3.5029   -0.0328 C.ar      1 <0>        -0.1248
     14 C11         7.0974   -4.8707   -0.1941 C.ar      1 <0>         0.1309
     15 C12         5.9880   -5.6909   -0.3369 C.ar      1 <0>        -0.1894
     16 C13         4.7189   -5.1465   -0.3118 C.ar      1 <0>        -0.0585
     17 O2          8.3466   -5.4074   -0.2128 O.3       1 <0>        -0.3242
     18 C14         8.4420   -6.8231   -0.3826 C.3       1 <0>         0.0223
     19 C15         9.9143   -7.2392   -0.3780 C.3       1 <0>         0.0000
     20 N2         10.5040   -6.9389    0.9335 N.4       1 <0>        -0.3875
     21 C16        11.9496   -7.1987    0.8918 C.3       1 <0>        -0.0436
     22 C17        12.5617   -6.8848    2.2592 C.3       1 <0>         0.0353
     23 O3         11.9142   -7.6771    3.2587 O.3       1 <0>        -0.3555
     24 C18        10.4994   -7.4768    3.3221 C.3       1 <0>         0.0369
     25 C19         9.8835   -7.7918    1.9566 C.3       1 <0>        -0.0502
     26 H1         -0.8860    0.2109   -4.5282 H         1 <0>         0.1406
     27 H2          0.9925    0.2898   -6.1157 H         1 <0>         0.1440
     28 H3          3.1560   -0.7335   -5.4979 H         1 <0>         0.1365
     29 H4         -0.6577   -0.8659   -2.3595 H         1 <0>         0.1384
     30 H5          5.5355   -1.8926    0.1114 H         1 <0>         0.1500
     31 H6          7.7966   -2.8642    0.0777 H         1 <0>         0.1476
     32 H7          6.1164   -6.7558   -0.4632 H         1 <0>         0.1419
     33 H8          3.8549   -5.7858   -0.4178 H         1 <0>         0.1481
     34 H9          7.9206   -7.3229    0.4338 H         1 <0>         0.0898
     35 H10         7.9872   -7.1066   -1.3317 H         1 <0>         0.1146
     36 H11         9.9901   -8.3088   -0.5742 H         1 <0>         0.1525
     37 H12        10.4498   -6.6891   -1.1517 H         1 <0>         0.1459
     38 H13        12.1239   -8.2465    0.6472 H         1 <0>         0.1406
     39 H14        12.4109   -6.5664    0.1331 H         1 <0>         0.1445
     40 H15        13.6264   -7.1176    2.2436 H         1 <0>         0.1436
     41 H16        12.4228   -5.8278    2.4862 H         1 <0>         0.0821
     42 H17        10.0716   -8.1381    4.0756 H         1 <0>         0.1430
     43 H18        10.2899   -6.4401    3.5855 H         1 <0>         0.0821
     44 H19         8.8110   -7.5998    1.9884 H         1 <0>         0.1399
     45 H20        10.0585   -8.8394    1.7117 H         1 <0>         0.1419
     46 H21        10.3427   -5.9692    1.1608 H         1 <0>         0.4301
@<TRIPOS>BOND
     1    1    6 ar
     2    1    2 ar
     3    1   26 1
     4    2    3 ar
     5    2   27 1
     6    3    4 ar
     7    3   28 1
     8    4    9 1
     9    4    5 ar
    10    5    6 ar
    11    5    7 1
    12    6   29 1
    13    7    8 2
    14    8    9 1
    15    8   10 1
    16   10   11 1
    17   11   16 ar
    18   11   12 ar
    19   12   13 ar
    20   12   30 1
    21   13   14 ar
    22   13   31 1
    23   14   15 ar
    24   14   17 1
    25   15   16 ar
    26   15   32 1
    27   16   33 1
    28   17   18 1
    29   18   19 1
    30   18   34 1
    31   18   35 1
    32   19   20 1
    33   19   36 1
    34   19   37 1
    35   20   25 1
    36   20   21 1
    37   20   46 1
    38   21   22 1
    39   21   38 1
    40   21   39 1
    41   22   23 1
    42   22   40 1
    43   22   41 1
    44   23   24 1
    45   24   25 1
    46   24   42 1
    47   24   43 1
    48   25   44 1
    49   25   45 1
@<TRIPOS>MOLECULE
CHEMBL456044
   64    66     0     0     0
SMALL
USER_CHARGES

@<TRIPOS>ATOM
      1 C1          0.3321    3.1465   -1.4733 C.3       1 <0>        -0.1439
      2 C2          0.4737    1.6778   -1.0687 C.3       1 <0>        -0.0903
      3 H1         -0.5086    1.2704   -0.8297 H         1 <0>         0.1039
      4 C3          1.3819    1.5720    0.1581 C.3       1 <0>        -0.0423
      5 S1          0.5862    2.3846    1.5713 S.3       1 <0>        -0.2534
      6 C4          1.0769    0.8985   -2.2088 C.2       1 <0>         0.5212
      7 O1          2.1295    0.3160   -2.0553 O.2       1 <0>        -0.5483
      8 N1          0.4466    0.8490   -3.3991 N.am      1 <0>        -0.6867
      9 C5          1.0330    0.0915   -4.5075 C.3       1 <0>         0.0970
     10 H2          1.5356   -0.7934   -4.1171 H         1 <0>         0.0904
     11 C6         -0.0728   -0.3352   -5.4749 C.3       1 <0>        -0.0711
     12 S2         -1.2735   -1.3759   -4.5997 S.3       1 <0>        -0.2346
     13 C7         -2.5014   -1.7914   -5.8686 C.3       1 <0>         0.0169
     14 C8         -3.2124   -0.5378   -6.3092 C.ar      1 <0>        -0.0783
     15 C9         -3.7687    0.3084   -5.3682 C.ar      1 <0>        -0.0953
     16 C10        -4.4208    1.4582   -5.7723 C.ar      1 <0>        -0.1189
     17 C11        -4.5164    1.7622   -7.1174 C.ar      1 <0>        -0.1189
     18 C12        -3.9593    0.9166   -8.0584 C.ar      1 <0>        -0.1194
     19 C13        -3.3034   -0.2311   -7.6540 C.ar      1 <0>        -0.1097
     20 C14        -3.5028   -2.7632   -5.2996 C.ar      1 <0>        -0.0563
     21 C15        -4.1391   -2.4801   -4.1055 C.ar      1 <0>        -0.0953
     22 C16        -5.0577   -3.3715   -3.5835 C.ar      1 <0>        -0.1155
     23 C17        -5.3402   -4.5458   -4.2558 C.ar      1 <0>        -0.0761
     24 C18        -4.7045   -4.8285   -5.4503 C.ar      1 <0>        -0.1137
     25 C19        -3.7892   -3.9351   -5.9745 C.ar      1 <0>        -0.1028
     26 C20        -6.3409   -5.5181   -3.6862 C.3       1 <0>        -0.0454
     27 C21        -5.6574   -6.8633   -3.4324 C.3       1 <0>        -0.1111
     28 C22        -6.6733   -7.8504   -2.8541 C.3       1 <0>        -0.1199
     29 C23        -7.8215   -8.0410   -3.8472 C.3       1 <0>        -0.1204
     30 C24        -8.5049   -6.6959   -4.1010 C.3       1 <0>        -0.1197
     31 C25        -7.4890   -5.7088   -4.6793 C.3       1 <0>        -0.1102
     32 C26         2.0305    0.9560   -5.2346 C.2       1 <0>         0.4987
     33 O2          2.9909    0.4465   -5.7863 O.co2     1 <0>        -0.6867
     34 O3          1.8770    2.1650   -5.2712 O.co2     1 <0>        -0.6803
     35 H3          1.3145    3.5539   -1.7122 H         1 <0>         0.0649
     36 H4         -0.3148    3.2219   -2.3473 H         1 <0>         0.0653
     37 H5         -0.1041    3.7101   -0.6486 H         1 <0>         0.0734
     38 H6          1.5546    0.5217    0.3929 H         1 <0>         0.0915
     39 H7          2.3343    2.0588   -0.0518 H         1 <0>         0.0909
     40 H8          1.4674    2.2280    2.5753 H         1 <0>         0.0857
     41 H9         -0.3952    1.3150   -3.5219 H         1 <0>         0.3957
     42 H10        -0.5755    0.5497   -5.8654 H         1 <0>         0.0848
     43 H11         0.3634   -0.8989   -6.2996 H         1 <0>         0.0919
     44 H12        -2.0007   -2.2448   -6.7241 H         1 <0>         0.0974
     45 H13        -3.6940    0.0709   -4.3173 H         1 <0>         0.1294
     46 H14        -4.8560    2.1189   -5.0371 H         1 <0>         0.1224
     47 H15        -5.0265    2.6602   -7.4332 H         1 <0>         0.1196
     48 H16        -4.0343    1.1539   -9.1093 H         1 <0>         0.1205
     49 H17        -2.8650   -0.8899   -8.3890 H         1 <0>         0.1191
     50 H18        -3.9184   -1.5626   -3.5803 H         1 <0>         0.1285
     51 H19        -5.5543   -3.1506   -2.6502 H         1 <0>         0.1206
     52 H20        -4.9250   -5.7462   -5.9754 H         1 <0>         0.1197
     53 H21        -3.2953   -4.1542   -6.9096 H         1 <0>         0.1207
     54 H22        -6.7335   -5.1273   -2.7475 H         1 <0>         0.0761
     55 H23        -5.2648   -7.2542   -4.3710 H         1 <0>         0.0638
     56 H24        -4.8395   -6.7275   -2.7248 H         1 <0>         0.0640
     57 H25        -6.1865   -8.8087   -2.6733 H         1 <0>         0.0613
     58 H26        -7.0660   -7.4595   -1.9154 H         1 <0>         0.0613
     59 H27        -7.4288   -8.4319   -4.7859 H         1 <0>         0.0608
     60 H28        -8.5453   -8.7443   -3.4352 H         1 <0>         0.0591
     61 H29        -9.3229   -6.8317   -4.8086 H         1 <0>         0.0608
     62 H30        -8.8976   -6.3050   -3.1624 H         1 <0>         0.0612
     63 H31        -7.9759   -4.7505   -4.8601 H         1 <0>         0.0626
     64 H32        -7.0963   -6.0997   -5.6180 H         1 <0>         0.0635
@<TRIPOS>BOND
     1    1    2 1
     2    1   35 1
     3    1   36 1
     4    1   37 1
     5    2    3 1
     6    2    4 1
     7    2    6 1
     8    4    5 1
     9    4   38 1
    10    4   39 1
    11    5   40 1
    12    6    7 2
    13    6    8 am
    14    8    9 1
    15    8   41 1
    16    9   10 1
    17    9   11 1
    18    9   32 1
    19   11   12 1
    20   11   42 1
    21   11   43 1
    22   12   13 1
    23   13   14 1
    24   13   20 1
    25   13   44 1
    26   14   19 ar
    27   14   15 ar
    28   15   16 ar
    29   15   45 1
    30   16   17 ar
    31   16   46 1
    32   17   18 ar
    33   17   47 1
    34   18   19 ar
    35   18   48 1
    36   19   49 1
    37   20   25 ar
    38   20   21 ar
    39   21   22 ar
    40   21   50 1
    41   22   23 ar
    42   22   51 1
    43   23   24 ar
    44   23   26 1
    45   24   25 ar
    46   24   52 1
    47   25   53 1
    48   26   31 1
    49   26   27 1
    50   26   54 1
    51   27   28 1
    52   27   55 1
    53   27   56 1
    54   28   29 1
    55   28   57 1
    56   28   58 1
    57   29   30 1
    58   29   59 1
    59   29   60 1
    60   30   31 1
    61   30   61 1
    62   30   62 1
    63   31   63 1
    64   31   64 1
    65   32   33 2
    66   32   34 1
@<TRIPOS>MOLECULE
CHEMBL456044__1
   64    66     0     0     0
SMALL
USER_CHARGES

@<TRIPOS>ATOM
      1 C1         -0.1645    3.4338   -1.5135 C.3       1 <0>        -0.1438
      2 C2          0.3579    2.0183   -1.2603 C.3       1 <0>        -0.0907
      3 H1         -0.4608    1.3843   -0.9201 H         1 <0>         0.1043
      4 C3          1.4488    2.0615   -0.1883 C.3       1 <0>        -0.0422
      5 S1          0.7270    2.5957    1.3878 S.3       1 <0>        -0.2532
      6 C4          0.9301    1.4581   -2.5369 C.2       1 <0>         0.5217
      7 O1          2.0956    1.1261   -2.5847 O.2       1 <0>        -0.5486
      8 N1          0.1466    1.3261   -3.6256 N.am      1 <0>        -0.6877
      9 C5          0.7027    0.7815   -4.8667 C.3       1 <0>         0.0973
     10 H2          1.4424    0.0170   -4.6286 H         1 <0>         0.0903
     11 C6         -0.4207    0.1620   -5.7003 C.3       1 <0>        -0.0706
     12 S2         -1.2105   -1.1703   -4.7559 S.3       1 <0>        -0.2351
     13 C7         -2.5014   -1.7914   -5.8686 C.3       1 <0>         0.0179
     14 C8         -1.8616   -2.4063   -7.0867 C.ar      1 <0>        -0.0801
     15 C9         -2.2620   -2.0139   -8.3502 C.ar      1 <0>        -0.1097
     16 C10        -1.6751   -2.5780   -9.4675 C.ar      1 <0>        -0.1201
     17 C11        -0.6874   -3.5340   -9.3212 C.ar      1 <0>        -0.1185
     18 C12        -0.2863   -3.9256   -8.0576 C.ar      1 <0>        -0.1191
     19 C13        -0.8703   -3.3585   -6.9403 C.ar      1 <0>        -0.0937
     20 C14        -3.3231   -2.8325   -5.1531 C.ar      1 <0>        -0.0562
     21 C15        -2.6982   -3.8879   -4.5155 C.ar      1 <0>        -0.0955
     22 C16        -3.4519   -4.8429   -3.8592 C.ar      1 <0>        -0.1154
     23 C17        -4.8304   -4.7423   -3.8401 C.ar      1 <0>        -0.0758
     24 C18        -5.4553   -3.6864   -4.4770 C.ar      1 <0>        -0.1137
     25 C19        -4.7014   -2.7291   -5.1296 C.ar      1 <0>        -0.1025
     26 C20        -5.6521   -5.7840   -3.1255 C.3       1 <0>        -0.0455
     27 C21        -6.5973   -6.4594   -4.1212 C.3       1 <0>        -0.1102
     28 C22        -7.4315   -7.5170   -3.3956 C.3       1 <0>        -0.1198
     29 C23        -8.2495   -6.8497   -2.2881 C.3       1 <0>        -0.1203
     30 C24        -7.3044   -6.1743   -1.2924 C.3       1 <0>        -0.1200
     31 C25        -6.4701   -5.1168   -2.0180 C.3       1 <0>        -0.1108
     32 C26         1.3588    1.8883   -5.6513 C.2       1 <0>         0.4987
     33 O2          2.3085    1.6422   -6.3752 O.co2     1 <0>        -0.6857
     34 O3          0.9400    3.0298   -5.5621 O.co2     1 <0>        -0.6813
     35 H3          0.6542    4.0679   -1.8537 H         1 <0>         0.0648
     36 H4         -0.9417    3.4031   -2.2772 H         1 <0>         0.0654
     37 H5         -0.5783    3.8390   -0.5901 H         1 <0>         0.0733
     38 H6          1.8826    1.0684   -0.0712 H         1 <0>         0.0914
     39 H7          2.2259    2.7643   -0.4889 H         1 <0>         0.0909
     40 H8          1.7680    2.5947    2.2394 H         1 <0>         0.0855
     41 H9         -0.7856    1.5916   -3.5873 H         1 <0>         0.3959
     42 H10        -1.1604    0.9264   -5.9384 H         1 <0>         0.0828
     43 H11        -0.0069   -0.2432   -6.6237 H         1 <0>         0.0935
     44 H12        -3.1456   -0.9668   -6.1738 H         1 <0>         0.0976
     45 H13        -3.0337   -1.2670   -8.4645 H         1 <0>         0.1193
     46 H14        -1.9885   -2.2720  -10.4547 H         1 <0>         0.1208
     47 H15        -0.2294   -3.9752  -10.1941 H         1 <0>         0.1198
     48 H16         0.4851   -4.6728   -7.9433 H         1 <0>         0.1220
     49 H17        -0.5543   -3.6618   -5.9531 H         1 <0>         0.1290
     50 H18        -1.6212   -3.9665   -4.5305 H         1 <0>         0.1283
     51 H19        -2.9637   -5.6679   -3.3617 H         1 <0>         0.1203
     52 H20        -6.5323   -3.6080   -4.4623 H         1 <0>         0.1198
     53 H21        -5.1893   -1.9021   -5.6240 H         1 <0>         0.1208
     54 H22        -4.9904   -6.5317   -2.6882 H         1 <0>         0.0759
     55 H23        -7.2590   -5.7118   -4.5585 H         1 <0>         0.0637
     56 H24        -6.0145   -6.9348   -4.9102 H         1 <0>         0.0624
     57 H25        -8.1049   -7.9981   -4.1050 H         1 <0>         0.0607
     58 H26        -6.7698   -8.2646   -2.9584 H         1 <0>         0.0611
     59 H27        -8.9113   -6.1021   -2.7254 H         1 <0>         0.0609
     60 H28        -8.8439   -7.6032   -1.7712 H         1 <0>         0.0591
     61 H29        -7.8871   -5.6990   -0.5034 H         1 <0>         0.0615
     62 H30        -6.6426   -6.9220   -0.8551 H         1 <0>         0.0612
     63 H31        -5.7968   -4.6356   -1.3086 H         1 <0>         0.0641
     64 H32        -7.1319   -4.3691   -2.4552 H         1 <0>         0.0639
@<TRIPOS>BOND
     1    1    2 1
     2    1   35 1
     3    1   36 1
     4    1   37 1
     5    2    3 1
     6    2    4 1
     7    2    6 1
     8    4    5 1
     9    4   38 1
    10    4   39 1
    11    5   40 1
    12    6    7 2
    13    6    8 am
    14    8    9 1
    15    8   41 1
    16    9   10 1
    17    9   11 1
    18    9   32 1
    19   11   12 1
    20   11   42 1
    21   11   43 1
    22   12   13 1
    23   13   14 1
    24   13   20 1
    25   13   44 1
    26   14   19 ar
    27   14   15 ar
    28   15   16 ar
    29   15   45 1
    30   16   17 ar
    31   16   46 1
    32   17   18 ar
    33   17   47 1
    34   18   19 ar
    35   18   48 1
    36   19   49 1
    37   20   25 ar
    38   20   21 ar
    39   21   22 ar
    40   21   50 1
    41   22   23 ar
    42   22   51 1
    43   23   24 ar
    44   23   26 1
    45   24   25 ar
    46   24   52 1
    47   25   53 1
    48   26   31 1
    49   26   27 1
    50   26   54 1
    51   27   28 1
    52   27   55 1
    53   27   56 1
    54   28   29 1
    55   28   57 1
    56   28   58 1
    57   29   30 1
    58   29   59 1
    59   29   60 1
    60   30   31 1
    61   30   61 1
    62   30   62 1
    63   31   63 1
    64   31   64 1
    65   32   33 2
    66   32   34 1
@<TRIPOS>MOLECULE
CHEMBL517998
   51    54     0     0     0
SMALL
USER_CHARGES

@<TRIPOS>ATOM
      1 C1          0.3428   -4.9537    4.5180 C.ar      1 <0>        -0.1092
      2 C2          1.5781   -5.0984    5.1309 C.ar      1 <0>        -0.0945
      3 C3          2.7387   -4.8071    4.4433 C.ar      1 <0>        -0.0868
      4 C4          2.6719   -4.3668    3.1312 C.ar      1 <0>         0.0036
      5 C5          1.4242   -4.2191    2.5073 C.ar      1 <0>         0.0424
      6 C6          0.2584   -4.5172    3.2142 C.ar      1 <0>        -0.0627
      7 N1          1.6710   -3.7791    1.2429 N.2       1 <0>        -0.4625
      8 C7          2.9623   -3.6603    1.0849 C.2       1 <0>         0.4180
      9 O1          3.6006   -4.0100    2.2148 O.3       1 <0>        -0.2359
     10 O2          3.5685   -3.2454   -0.0500 O.3       1 <0>        -0.1747
     11 C8          4.9175   -3.0765   -0.0281 C.ar      1 <0>         0.0261
     12 C9          5.4555   -1.8003    0.0516 C.ar      1 <0>        -0.0581
     13 C10         6.8258   -1.6287    0.0737 C.ar      1 <0>        -0.1325
     14 C11         7.6640   -2.7324    0.0164 C.ar      1 <0>         0.1411
     15 C12         7.1261   -4.0085   -0.0637 C.ar      1 <0>        -0.1948
     16 C13         5.7558   -4.1805   -0.0797 C.ar      1 <0>        -0.0681
     17 O3          9.0130   -2.5634    0.0382 O.3       1 <0>        -0.3074
     18 C14         9.8158   -3.7440   -0.0239 C.3       1 <0>         0.0597
     19 C15        11.2956   -3.3569    0.0119 C.3       1 <0>        -0.1511
     20 C16        12.1551   -4.6209   -0.0547 C.3       1 <0>        -0.0062
     21 N2         13.5759   -4.2492   -0.0203 N.4       1 <0>        -0.3815
     22 C17        13.9081   -3.4797   -1.2253 C.3       1 <0>        -0.0139
     23 C18        15.3662   -3.0208   -1.1562 C.3       1 <0>        -0.1460
     24 C19        16.2780   -4.2478   -1.0647 C.3       1 <0>        -0.1401
     25 C20        15.8738   -5.0822    0.1542 C.3       1 <0>        -0.1465
     26 C21        14.3968   -5.4647    0.0365 C.3       1 <0>        -0.0066
     27 H1         -0.5584   -5.1889    5.0646 H         1 <0>         0.1428
     28 H2          1.6324   -5.4410    6.1537 H         1 <0>         0.1444
     29 H3          3.6973   -4.9218    4.9272 H         1 <0>         0.1353
     30 H4         -0.7060   -4.4057    2.7411 H         1 <0>         0.1418
     31 H5          4.8029   -0.9410    0.0959 H         1 <0>         0.1504
     32 H6          7.2446   -0.6352    0.1354 H         1 <0>         0.1481
     33 H7          7.7788   -4.8677   -0.1091 H         1 <0>         0.1382
     34 H8          5.3369   -5.1744   -0.1368 H         1 <0>         0.1403
     35 H9          9.5870   -4.3842    0.8280 H         1 <0>         0.0757
     36 H10         9.6027   -4.2800   -0.9488 H         1 <0>         0.0760
     37 H11        11.5244   -2.7167   -0.8401 H         1 <0>         0.1005
     38 H12        11.5087   -2.8209    0.9367 H         1 <0>         0.1004
     39 H13        11.9263   -5.2611    0.7973 H         1 <0>         0.1354
     40 H14        11.9420   -5.1569   -0.9796 H         1 <0>         0.1339
     41 H15        13.7661   -4.1057   -2.1063 H         1 <0>         0.1296
     42 H16        13.2563   -2.6086   -1.2907 H         1 <0>         0.1321
     43 H17        15.6114   -2.4512   -2.0525 H         1 <0>         0.1128
     44 H18        15.5094   -2.3945   -0.2756 H         1 <0>         0.0881
     45 H19        16.1731   -4.8481   -1.9684 H         1 <0>         0.0821
     46 H20        17.3137   -3.9252   -0.9583 H         1 <0>         0.0949
     47 H21        16.4817   -5.9860    0.1944 H         1 <0>         0.1132
     48 H22        16.0274   -4.4987    1.0619 H         1 <0>         0.0881
     49 H23        14.1058   -6.0590    0.9026 H         1 <0>         0.1308
     50 H24        14.2443   -6.0484   -0.8714 H         1 <0>         0.1292
     51 H25        13.7552   -3.6850    0.7967 H         1 <0>         0.4238
@<TRIPOS>BOND
     1    1    6 ar
     2    1    2 ar
     3    1   27 1
     4    2    3 ar
     5    2   28 1
     6    3    4 ar
     7    3   29 1
     8    4    9 1
     9    4    5 ar
    10    5    6 ar
    11    5    7 1
    12    6   30 1
    13    7    8 2
    14    8    9 1
    15    8   10 1
    16   10   11 1
    17   11   16 ar
    18   11   12 ar
    19   12   13 ar
    20   12   31 1
    21   13   14 ar
    22   13   32 1
    23   14   15 ar
    24   14   17 1
    25   15   16 ar
    26   15   33 1
    27   16   34 1
    28   17   18 1
    29   18   19 1
    30   18   35 1
    31   18   36 1
    32   19   20 1
    33   19   37 1
    34   19   38 1
    35   20   21 1
    36   20   39 1
    37   20   40 1
    38   21   26 1
    39   21   22 1
    40   21   51 1
    41   22   23 1
    42   22   41 1
    43   22   42 1
    44   23   24 1
    45   23   43 1
    46   23   44 1
    47   24   25 1
    48   24   45 1
    49   24   46 1
    50   25   26 1
    51   25   47 1
    52   25   48 1
    53   26   49 1
    54   26   50 1
@<TRIPOS>MOLECULE
CHEMBL479788
   51    54     0     0     0
SMALL
USER_CHARGES

@<TRIPOS>ATOM
      1 C1         -0.7778   -1.5654   -4.1912 C.ar      1 <0>        -0.1029
      2 C2          0.2226   -1.4888   -5.1496 C.ar      1 <0>        -0.0947
      3 C3          1.4993   -1.9138   -4.8311 C.ar      1 <0>        -0.0632
      4 C4          1.7567   -2.4036   -3.5750 C.ar      1 <0>        -0.1399
      5 C5          0.7633   -2.4964   -2.5739 C.ar      1 <0>         0.1003
      6 C6         -0.5300   -2.0530   -2.9348 C.ar      1 <0>        -0.0632
      7 N1          1.1722   -3.0001   -1.3889 N.2       1 <0>        -0.5124
      8 C7          2.4089   -3.3807   -1.1732 C.2       1 <0>         0.3380
      9 S1          3.1914   -3.0421   -2.7440 S.3       1 <0>        -0.0379
     10 O1          2.9538   -3.8976   -0.0477 O.3       1 <0>        -0.1837
     11 C8          4.2485   -4.3101   -0.0964 C.ar      1 <0>         0.0289
     12 C9          5.2753   -3.3781   -0.0586 C.ar      1 <0>        -0.0711
     13 C10         6.5904   -3.7971   -0.1081 C.ar      1 <0>        -0.1297
     14 C11         6.8845   -5.1498   -0.1957 C.ar      1 <0>         0.1415
     15 C12         5.8579   -6.0818   -0.2339 C.ar      1 <0>        -0.1948
     16 C13         4.5428   -5.6633   -0.1781 C.ar      1 <0>        -0.0585
     17 O2          8.1793   -5.5622   -0.2444 O.3       1 <0>        -0.3073
     18 C14         8.4088   -6.9698   -0.3341 C.3       1 <0>         0.0595
     19 C15         9.9143   -7.2392   -0.3780 C.3       1 <0>        -0.1512
     20 C16        10.1601   -8.7463   -0.4740 C.3       1 <0>        -0.0063
     21 N2         11.6055   -9.0050   -0.5162 N.4       1 <0>        -0.3814
     22 C17        12.1679   -8.4323   -1.7451 C.3       1 <0>        -0.0138
     23 C18        13.6855   -8.6279   -1.7555 C.3       1 <0>        -0.1460
     24 C19        14.0022  -10.1250   -1.6967 C.3       1 <0>        -0.1401
     25 C20        13.3480  -10.7266   -0.4495 C.3       1 <0>        -0.1465
     26 C21        11.8429  -10.4532   -0.4876 C.3       1 <0>        -0.0066
     27 H1         -1.7735   -1.2289   -4.4398 H         1 <0>         0.1396
     28 H2          0.0063   -1.1016   -6.1343 H         1 <0>         0.1429
     29 H3          2.2888   -1.8610   -5.5661 H         1 <0>         0.1357
     30 H4         -1.3313   -2.0987   -2.2121 H         1 <0>         0.1377
     31 H5          5.0463   -2.3248    0.0092 H         1 <0>         0.1479
     32 H6          7.3898   -3.0714   -0.0791 H         1 <0>         0.1473
     33 H7          6.0870   -7.1349   -0.3027 H         1 <0>         0.1398
     34 H8          3.7436   -6.3892   -0.2027 H         1 <0>         0.1449
     35 H9          7.9764   -7.4646    0.5356 H         1 <0>         0.0765
     36 H10         7.9438   -7.3567   -1.2408 H         1 <0>         0.0759
     37 H11        10.3467   -6.7445   -1.2477 H         1 <0>         0.1003
     38 H12        10.3793   -6.8523    0.5287 H         1 <0>         0.1006
     39 H13         9.7276   -9.2411    0.3956 H         1 <0>         0.1357
     40 H14         9.6951   -9.1333   -1.3807 H         1 <0>         0.1337
     41 H15        11.7318   -8.9312   -2.6106 H         1 <0>         0.1295
     42 H16        11.9389   -7.3675   -1.7871 H         1 <0>         0.1321
     43 H17        14.1009   -8.2036   -2.6695 H         1 <0>         0.1127
     44 H18        14.1226   -8.1291   -0.8905 H         1 <0>         0.0881
     45 H19        13.6093  -10.6159   -2.5871 H         1 <0>         0.0820
     46 H20        15.0816  -10.2676   -1.6468 H         1 <0>         0.0948
     47 H21        13.5222  -11.8024   -0.4301 H         1 <0>         0.1131
     48 H22        13.7781  -10.2714    0.4426 H         1 <0>         0.0881
     49 H23        11.3740  -10.8804    0.3989 H         1 <0>         0.1310
     50 H24        11.4137  -10.9090   -1.3799 H         1 <0>         0.1292
     51 H25        12.0462   -8.5771    0.2842 H         1 <0>         0.4239
@<TRIPOS>BOND
     1    1    6 ar
     2    1    2 ar
     3    1   27 1
     4    2    3 ar
     5    2   28 1
     6    3    4 ar
     7    3   29 1
     8    4    9 1
     9    4    5 ar
    10    5    6 ar
    11    5    7 1
    12    6   30 1
    13    7    8 2
    14    8    9 1
    15    8   10 1
    16   10   11 1
    17   11   16 ar
    18   11   12 ar
    19   12   13 ar
    20   12   31 1
    21   13   14 ar
    22   13   32 1
    23   14   15 ar
    24   14   17 1
    25   15   16 ar
    26   15   33 1
    27   16   34 1
    28   17   18 1
    29   18   19 1
    30   18   35 1
    31   18   36 1
    32   19   20 1
    33   19   37 1
    34   19   38 1
    35   20   21 1
    36   20   39 1
    37   20   40 1
    38   21   26 1
    39   21   22 1
    40   21   51 1
    41   22   23 1
    42   22   41 1
    43   22   42 1
    44   23   24 1
    45   23   43 1
    46   23   44 1
    47   24   25 1
    48   24   45 1
    49   24   46 1
    50   25   26 1
    51   25   47 1
    52   25   48 1
    53   26   49 1
    54   26   50 1
@<TRIPOS>MOLECULE
CHEMBL481690
   52    55     0     0     0
SMALL
USER_CHARGES

@<TRIPOS>ATOM
      1 C1          0.1977   -1.9266   -4.6238 C.ar      1 <0>        -0.1020
      2 C2          1.4114   -1.6291   -5.2262 C.ar      1 <0>        -0.1177
      3 C3          2.5908   -1.7747   -4.5312 C.ar      1 <0>        -0.0722
      4 C4          2.5658   -2.2252   -3.2089 C.ar      1 <0>         0.0680
      5 C5          1.3341   -2.5246   -2.6036 C.ar      1 <0>         0.0499
      6 C6          0.1558   -2.3724   -3.3192 C.ar      1 <0>        -0.1039
      7 N1          1.6293   -2.9383   -1.3160 N.pl3     1 <0>        -0.5861
      8 H1          0.9910   -3.2161   -0.6405 H         1 <0>         0.4292
      9 C7          2.9849   -2.8828   -1.1737 C.2       1 <0>         0.4577
     10 N2          3.5330   -2.4643   -2.2848 N.2       1 <0>        -0.5195
     11 O1          3.6620   -3.2119   -0.0497 O.3       1 <0>        -0.2328
     12 C8          5.0209   -3.2007   -0.0966 C.ar      1 <0>         0.0677
     13 C9          5.7065   -1.9955   -0.0543 C.ar      1 <0>        -0.0606
     14 C10         7.0868   -1.9842   -0.1020 C.ar      1 <0>        -0.1314
     15 C11         7.7874   -3.1779   -0.1923 C.ar      1 <0>         0.1331
     16 C12         7.1019   -4.3830   -0.2351 C.ar      1 <0>        -0.1954
     17 C13         5.7218   -4.3947   -0.1812 C.ar      1 <0>        -0.0674
     18 O2          9.1463   -3.1666   -0.2393 O.3       1 <0>        -0.3096
     19 C14         9.8027   -4.4326   -0.3320 C.3       1 <0>         0.0609
     20 C15        11.3173   -4.2199   -0.3734 C.3       1 <0>        -0.1510
     21 C16        12.0201   -5.5753   -0.4727 C.3       1 <0>        -0.0062
     22 N3         13.4743   -5.3711   -0.5124 N.4       1 <0>        -0.3814
     23 C17        13.8320   -4.6480   -1.7386 C.3       1 <0>        -0.0140
     24 C18        15.3351   -4.3615   -1.7462 C.3       1 <0>        -0.1460
     25 C19        16.1020   -5.6859   -1.6905 C.3       1 <0>        -0.1400
     26 C20        15.6660   -6.4650   -0.4463 C.3       1 <0>        -0.1465
     27 C21        14.1506   -6.6736   -0.4869 C.3       1 <0>        -0.0066
     28 H2         -0.7208   -1.8041   -5.1786 H         1 <0>         0.1349
     29 H3          1.4312   -1.2808   -6.2483 H         1 <0>         0.1334
     30 H4          3.5321   -1.5419   -5.0066 H         1 <0>         0.1306
     31 H5         -0.7922   -2.6027   -2.8561 H         1 <0>         0.1270
     32 H6          5.1609   -1.0660    0.0157 H         1 <0>         0.1413
     33 H7          7.6205   -1.0458   -0.0694 H         1 <0>         0.1425
     34 H8          7.6475   -5.3123   -0.3062 H         1 <0>         0.1351
     35 H9          5.1883   -5.3333   -0.2093 H         1 <0>         0.1376
     36 H10         9.5446   -5.0401    0.5354 H         1 <0>         0.0746
     37 H11         9.4824   -4.9422   -1.2408 H         1 <0>         0.0744
     38 H12        11.5753   -3.6124   -1.2408 H         1 <0>         0.1000
     39 H13        11.6376   -3.7103    0.5353 H         1 <0>         0.0999
     40 H14        11.7620   -6.1828    0.3948 H         1 <0>         0.1353
     41 H15        11.6998   -6.0850   -1.3814 H         1 <0>         0.1336
     42 H16        13.5740   -5.2552   -2.6063 H         1 <0>         0.1296
     43 H17        13.2830   -3.7072   -1.7784 H         1 <0>         0.1324
     44 H18        15.5990   -3.8261   -2.6582 H         1 <0>         0.1127
     45 H19        15.5942   -3.7541   -0.8789 H         1 <0>         0.0880
     46 H20        15.8826   -6.2719   -2.5830 H         1 <0>         0.0820
     47 H21        17.1722   -5.4855   -1.6386 H         1 <0>         0.0947
     48 H22        16.1663   -7.4332   -0.4292 H         1 <0>         0.1129
     49 H23        15.9319   -5.9013    0.4479 H         1 <0>         0.0880
     50 H24        13.8368   -7.2282    0.3974 H         1 <0>         0.1307
     51 H25        13.8858   -7.2376   -1.3813 H         1 <0>         0.1291
     52 H26        13.7589   -4.8298    0.2901 H         1 <0>         0.4237
@<TRIPOS>BOND
     1    1    6 ar
     2    1    2 ar
     3    1   28 1
     4    2    3 ar
     5    2   29 1
     6    3    4 ar
     7    3   30 1
     8    4   10 1
     9    4    5 ar
    10    5    6 ar
    11    5    7 1
    12    6   31 1
    13    7    8 1
    14    7    9 1
    15    9   10 2
    16    9   11 1
    17   11   12 1
    18   12   17 ar
    19   12   13 ar
    20   13   14 ar
    21   13   32 1
    22   14   15 ar
    23   14   33 1
    24   15   16 ar
    25   15   18 1
    26   16   17 ar
    27   16   34 1
    28   17   35 1
    29   18   19 1
    30   19   20 1
    31   19   36 1
    32   19   37 1
    33   20   21 1
    34   20   38 1
    35   20   39 1
    36   21   22 1
    37   21   40 1
    38   21   41 1
    39   22   27 1
    40   22   23 1
    41   22   52 1
    42   23   24 1
    43   23   42 1
    44   23   43 1
    45   24   25 1
    46   24   44 1
    47   24   45 1
    48   25   26 1
    49   25   46 1
    50   25   47 1
    51   26   27 1
    52   26   48 1
    53   26   49 1
    54   27   50 1
    55   27   51 1
@<TRIPOS>MOLECULE
CHEMBL276096
   45    48     0     0     0
SMALL
USER_CHARGES

@<TRIPOS>ATOM
      1 C1         -0.0167    1.3781    0.0096 C.ar      1 <0>        -0.1235
      2 C2          1.1709    2.0855    0.0021 C.ar      1 <0>        -0.1175
      3 C3          2.3773    1.4107   -0.0130 C.ar      1 <0>        -0.1151
      4 C4          2.3960    0.0285   -0.0201 C.ar      1 <0>        -0.0779
      5 C5          1.2084   -0.6789   -0.0117 C.ar      1 <0>        -0.1157
      6 C6          0.0021   -0.0041    0.0020 C.ar      1 <0>        -0.1178
      7 C7          3.7112   -0.7071   -0.0376 C.3       1 <0>        -0.0402
      8 C8          4.1644   -0.9594    1.3773 C.ar      1 <0>        -0.1067
      9 C9          4.9522   -0.0267    2.0264 C.ar      1 <0>        -0.0731
     10 C10         5.3694   -0.2559    3.3232 C.ar      1 <0>        -0.1431
     11 C11         4.9969   -1.4228    3.9745 C.ar      1 <0>         0.1226
     12 C12         4.2060   -2.3568    3.3213 C.ar      1 <0>        -0.2027
     13 C13         3.7871   -2.1206    2.0262 C.ar      1 <0>        -0.0728
     14 O1          5.4064   -1.6507    5.2502 O.3       1 <0>        -0.3106
     15 C14         4.9849   -2.8733    5.8582 C.3       1 <0>         0.0428
     16 C15         5.5391   -2.9523    7.2821 C.3       1 <0>         0.1106
     17 N1          5.1069   -4.2057    7.9054 N.pl3     1 <0>        -0.4797
     18 C16         4.0151   -4.3769    8.7006 C.2       1 <0>         0.2906
     19 N2          3.9292   -5.6184    9.0819 N.2       1 <0>        -0.4677
     20 C17         4.9592   -6.3282    8.5577 C.ar      1 <0>         0.0408
     21 C18         5.7259   -5.4292    7.7908 C.ar      1 <0>         0.0673
     22 C19         6.8523   -5.9077    7.1323 C.ar      1 <0>        -0.1036
     23 C20         7.1752   -7.2426    7.2518 C.ar      1 <0>         0.0751
     24 N3          6.4348   -8.0657    7.9768 N.ar      1 <0>        -0.1187
     25 O2          6.8137   -9.4272    8.0642 O.3       1 <0>        -0.5468
     26 C21         5.3626   -7.6618    8.6272 C.ar      1 <0>         0.1470
     27 H1         -0.9591    1.9053    0.0259 H         1 <0>         0.1214
     28 H2          1.1563    3.1654    0.0076 H         1 <0>         0.1221
     29 H3          3.3051    1.9634   -0.0196 H         1 <0>         0.1208
     30 H4          1.2231   -1.7588   -0.0176 H         1 <0>         0.1197
     31 H5         -0.9258   -0.5567    0.0082 H         1 <0>         0.1217
     32 H6          3.5884   -1.6586   -0.5549 H         1 <0>         0.0826
     33 H7          4.4573   -0.1052   -0.5563 H         1 <0>         0.0837
     34 H8          5.2420    0.8815    1.5189 H         1 <0>         0.1308
     35 H9          5.9853    0.4726    3.8295 H         1 <0>         0.1329
     36 H10         3.9147   -3.2660    3.8262 H         1 <0>         0.1253
     37 H11         3.1678   -2.8454    1.5188 H         1 <0>         0.1253
     38 H12         3.8958   -2.9068    5.8898 H         1 <0>         0.0733
     39 H13         5.3576   -3.7160    5.2759 H         1 <0>         0.0706
     40 H14         6.6281   -2.9189    7.2505 H         1 <0>         0.1098
     41 H15         5.1664   -2.1096    7.8643 H         1 <0>         0.1192
     42 H16         3.3213   -3.5961    8.9751 H         1 <0>         0.2306
     43 H17         7.4638   -5.2456    6.5372 H         1 <0>         0.1634
     44 H18         8.0486   -7.6240    6.7438 H         1 <0>         0.1907
     45 H19         4.7871   -8.3684    9.2067 H         1 <0>         0.1924
@<TRIPOS>BOND
     1    1    6 ar
     2    1    2 ar
     3    1   27 1
     4    2    3 ar
     5    2   28 1
     6    3    4 ar
     7    3   29 1
     8    4    5 ar
     9    4    7 1
    10    5    6 ar
    11    5   30 1
    12    6   31 1
    13    7    8 1
    14    7   32 1
    15    7   33 1
    16    8   13 ar
    17    8    9 ar
    18    9   10 ar
    19    9   34 1
    20   10   11 ar
    21   10   35 1
    22   11   12 ar
    23   11   14 1
    24   12   13 ar
    25   12   36 1
    26   13   37 1
    27   14   15 1
    28   15   16 1
    29   15   38 1
    30   15   39 1
    31   16   17 1
    32   16   40 1
    33   16   41 1
    34   17   21 1
    35   17   18 1
    36   18   19 2
    37   18   42 1
    38   19   20 1
    39   20   26 ar
    40   20   21 ar
    41   21   22 ar
    42   22   23 ar
    43   22   43 1
    44   23   24 ar
    45   23   44 1
    46   24   25 1
    47   24   26 ar
    48   26   45 1
@<TRIPOS>MOLECULE
CHEMBL14857
   46    49     0     0     0
SMALL
USER_CHARGES

@<TRIPOS>ATOM
      1 C1         -0.0167    1.3781    0.0096 C.ar      1 <0>        -0.1212
      2 C2          1.1709    2.0855    0.0021 C.ar      1 <0>        -0.1160
      3 C3          2.3773    1.4107   -0.0130 C.ar      1 <0>        -0.1145
      4 C4          2.3960    0.0285   -0.0201 C.ar      1 <0>        -0.0810
      5 C5          1.2084   -0.6789   -0.0117 C.ar      1 <0>        -0.1165
      6 C6          0.0021   -0.0041    0.0020 C.ar      1 <0>        -0.1179
      7 C7          3.7112   -0.7071   -0.0376 C.3       1 <0>        -0.0435
      8 C8          4.1644   -0.9594    1.3773 C.ar      1 <0>        -0.0950
      9 C9          4.9522   -0.0267    2.0264 C.ar      1 <0>        -0.0708
     10 C10         5.3694   -0.2559    3.3232 C.ar      1 <0>        -0.1355
     11 C11         4.9969   -1.4228    3.9745 C.ar      1 <0>         0.1118
     12 C12         4.2060   -2.3568    3.3213 C.ar      1 <0>        -0.2018
     13 C13         3.7871   -2.1206    2.0262 C.ar      1 <0>        -0.0740
     14 O1          5.4064   -1.6507    5.2502 O.3       1 <0>        -0.3056
     15 C14         4.9849   -2.8733    5.8582 C.3       1 <0>         0.0391
     16 C15         5.5391   -2.9523    7.2821 C.3       1 <0>         0.0926
     17 N1          5.1069   -4.2057    7.9054 N.pl3     1 <0>        -0.4140
     18 C16         4.0162   -4.3767    8.6998 C.cat     1 <0>         0.4070
     19 N2          3.9300   -5.6191    9.0815 N.pl3     1 <0>        -0.4816
     20 C17         4.9577   -6.3276    8.5587 C.ar      1 <0>         0.0742
     21 C18         5.7273   -5.4320    7.7905 C.ar      1 <0>         0.0610
     22 C19         6.8514   -5.9050    7.1327 C.ar      1 <0>         0.1249
     23 N3          7.1887   -7.1771    7.2259 N.ar      1 <0>        -0.0984
     24 O2          8.3429   -7.6300    6.5421 O.3       1 <0>        -0.4738
     25 C20         6.4860   -8.0443    7.9366 C.ar      1 <0>         0.1020
     26 C21         5.3679   -7.6636    8.6240 C.ar      1 <0>        -0.0660
     27 H1         -0.9591    1.9053    0.0259 H         1 <0>         0.1229
     28 H2          1.1563    3.1654    0.0076 H         1 <0>         0.1238
     29 H3          3.3051    1.9634   -0.0196 H         1 <0>         0.1215
     30 H4          1.2231   -1.7588   -0.0176 H         1 <0>         0.1189
     31 H5         -0.9258   -0.5567    0.0082 H         1 <0>         0.1222
     32 H6          3.5884   -1.6586   -0.5549 H         1 <0>         0.0845
     33 H7          4.4573   -0.1052   -0.5563 H         1 <0>         0.0866
     34 H8          5.2420    0.8815    1.5189 H         1 <0>         0.1353
     35 H9          5.9853    0.4726    3.8295 H         1 <0>         0.1356
     36 H10         3.9147   -3.2660    3.8262 H         1 <0>         0.1215
     37 H11         3.1678   -2.8454    1.5188 H         1 <0>         0.1276
     38 H12         3.8958   -2.9068    5.8898 H         1 <0>         0.0783
     39 H13         5.3576   -3.7160    5.2759 H         1 <0>         0.0768
     40 H14         6.6281   -2.9189    7.2505 H         1 <0>         0.1396
     41 H15         5.1664   -2.1096    7.8643 H         1 <0>         0.1457
     42 H16         3.3227   -3.5957    8.9745 H         1 <0>         0.2821
     43 H17         7.4531   -5.2304    6.5416 H         1 <0>         0.2078
     44 H18         6.8067   -9.0747    7.9792 H         1 <0>         0.2146
     45 H19         4.8044   -8.3839    9.1984 H         1 <0>         0.1955
     46 H20         3.2351   -5.9812    9.6533 H         1 <0>         0.4737
@<TRIPOS>BOND
     1    1    6 ar
     2    1    2 ar
     3    1   27 1
     4    2    3 ar
     5    2   28 1
     6    3    4 ar
     7    3   29 1
     8    4    5 ar
     9    4    7 1
    10    5    6 ar
    11    5   30 1
    12    6   31 1
    13    7    8 1
    14    7   32 1
    15    7   33 1
    16    8   13 ar
    17    8    9 ar
    18    9   10 ar
    19    9   34 1
    20   10   11 ar
    21   10   35 1
    22   11   12 ar
    23   11   14 1
    24   12   13 ar
    25   12   36 1
    26   13   37 1
    27   14   15 1
    28   15   16 1
    29   15   38 1
    30   15   39 1
    31   16   17 1
    32   16   40 1
    33   16   41 1
    34   17   21 1
    35   17   18 1
    36   18   19 2
    37   18   42 1
    38   19   20 1
    39   19   46 1
    40   20   26 ar
    41   20   21 ar
    42   21   22 ar
    43   22   23 ar
    44   22   43 1
    45   23   24 1
    46   23   25 ar
    47   25   26 ar
    48   25   44 1
    49   26   45 1
@<TRIPOS>MOLECULE
CHEMBL539640
   25    26     0     0     0
SMALL
USER_CHARGES

@<TRIPOS>ATOM
      1 C1         -0.0163    1.3535    0.0095 C.2       1 <0>        -0.1674
      2 C2          1.1776    2.0410    0.0018 C.2       1 <0>        -0.1161
      3 C3          2.3470    1.3291   -0.0132 C.2       1 <0>        -0.1588
      4 S1          1.7525   -0.3544   -0.0166 S.3       1 <0>         0.0741
      5 C4          0.0021   -0.0041    0.0020 C.2       1 <0>        -0.1464
      6 C5          3.7395    1.8252   -0.0243 C.ar      1 <0>         0.0521
      7 C6          3.9948    3.1974   -0.0140 C.ar      1 <0>        -0.1060
      8 C7          5.2967    3.6538   -0.0239 C.ar      1 <0>        -0.0814
      9 C8          6.3480    2.7546   -0.0444 C.ar      1 <0>        -0.1800
     10 C9          6.1019    1.3932   -0.0547 C.ar      1 <0>        -0.0807
     11 C10         4.8047    0.9235   -0.0392 C.ar      1 <0>        -0.1129
     12 C11         7.7676    3.2604   -0.0562 C.3       1 <0>         0.0490
     13 N1          8.2449    3.4118    1.3248 N.4       1 <0>        -0.6374
     14 H1         -0.9549    1.8876    0.0258 H         1 <0>         0.1438
     15 H2          1.1908    3.1209    0.0071 H         1 <0>         0.1375
     16 H3         -0.8285   -0.6944    0.0062 H         1 <0>         0.1949
     17 H4          3.1750    3.9003    0.0014 H         1 <0>         0.1389
     18 H5          5.4956    4.7153   -0.0159 H         1 <0>         0.1367
     19 H6          6.9270    0.6965   -0.0708 H         1 <0>         0.1365
     20 H7          4.6139   -0.1395   -0.0431 H         1 <0>         0.1364
     21 H8          8.4025    2.5488   -0.5841 H         1 <0>         0.1401
     22 H9          7.8053    4.2254   -0.5615 H         1 <0>         0.1402
     23 H10         7.6572    4.0705    1.8135 H         1 <0>         0.4345
     24 H11         8.2100    2.5185    1.7926 H         1 <0>         0.4346
     25 H12         9.1953    3.7504    1.3170 H         1 <0>         0.4376
@<TRIPOS>BOND
     1    1    5 2
     2    1    2 1
     3    1   14 1
     4    2    3 2
     5    2   15 1
     6    3    4 1
     7    3    6 1
     8    4    5 1
     9    5   16 1
    10    6   11 ar
    11    6    7 ar
    12    7    8 ar
    13    7   17 1
    14    8    9 ar
    15    8   18 1
    16    9   10 ar
    17    9   12 1
    18   10   11 ar
    19   10   19 1
    20   11   20 1
    21   12   13 1
    22   12   21 1
    23   12   22 1
    24   13   23 1
    25   13   24 1
    26   13   25 1
@<TRIPOS>MOLECULE
CHEMBL14739
   44    47     0     0     0
SMALL
USER_CHARGES

@<TRIPOS>ATOM
      1 C1         -0.0167    1.3781    0.0096 C.ar      1 <0>        -0.1236
      2 C2          1.1709    2.0855    0.0021 C.ar      1 <0>        -0.1176
      3 C3          2.3773    1.4107   -0.0130 C.ar      1 <0>        -0.1154
      4 C4          2.3960    0.0285   -0.0201 C.ar      1 <0>        -0.0779
      5 C5          1.2084   -0.6789   -0.0117 C.ar      1 <0>        -0.1156
      6 C6          0.0021   -0.0041    0.0020 C.ar      1 <0>        -0.1176
      7 C7          3.7112   -0.7071   -0.0376 C.3       1 <0>        -0.0393
      8 C8          4.1644   -0.9594    1.3773 C.ar      1 <0>        -0.1087
      9 C9          4.9522   -0.0267    2.0264 C.ar      1 <0>        -0.0738
     10 C10         5.3694   -0.2559    3.3232 C.ar      1 <0>        -0.1453
     11 C11         4.9969   -1.4228    3.9745 C.ar      1 <0>         0.1248
     12 C12         4.2060   -2.3568    3.3213 C.ar      1 <0>        -0.2025
     13 C13         3.7871   -2.1206    2.0262 C.ar      1 <0>        -0.0724
     14 O1          5.4064   -1.6507    5.2502 O.3       1 <0>        -0.3198
     15 C14         4.9849   -2.8733    5.8582 C.3       1 <0>         0.0428
     16 C15         5.5391   -2.9523    7.2821 C.3       1 <0>         0.0826
     17 N1          4.9453   -1.8894    8.0969 N.pl3     1 <0>        -0.3666
     18 C16         5.5444   -0.6892    8.1628 C.2       1 <0>         0.1593
     19 C17         5.0258    0.3263    8.9079 C.2       1 <0>        -0.2054
     20 C18         3.8504    0.1423    9.6263 C.2       1 <0>         0.0518
     21 C19         3.2153   -1.0983    9.5689 C.2       1 <0>        -0.0152
     22 N2          2.0997   -1.6143   10.1166 N.2       1 <0>        -0.5322
     23 C20         1.9804   -2.8601    9.7099 C.2       1 <0>         0.2375
     24 N3          2.9875   -3.1819    8.9077 N.2       1 <0>        -0.5666
     25 C21         3.7846   -2.1275    8.7777 C.2       1 <0>         0.2219
     26 H1         -0.9591    1.9053    0.0259 H         1 <0>         0.1213
     27 H2          1.1563    3.1654    0.0076 H         1 <0>         0.1220
     28 H3          3.3051    1.9634   -0.0196 H         1 <0>         0.1205
     29 H4          1.2231   -1.7588   -0.0176 H         1 <0>         0.1197
     30 H5         -0.9258   -0.5567    0.0082 H         1 <0>         0.1217
     31 H6          3.5884   -1.6586   -0.5549 H         1 <0>         0.0822
     32 H7          4.4573   -0.1052   -0.5563 H         1 <0>         0.0832
     33 H8          5.2420    0.8815    1.5189 H         1 <0>         0.1297
     34 H9          5.9853    0.4726    3.8295 H         1 <0>         0.1311
     35 H10         3.9147   -3.2660    3.8262 H         1 <0>         0.1270
     36 H11         3.1678   -2.8454    1.5188 H         1 <0>         0.1250
     37 H12         3.8958   -2.9068    5.8898 H         1 <0>         0.0776
     38 H13         5.3576   -3.7160    5.2759 H         1 <0>         0.0911
     39 H14         5.2928   -3.9221    7.7145 H         1 <0>         0.1320
     40 H15         6.6219   -2.8297    7.2579 H         1 <0>         0.1163
     41 H16         6.4590   -0.5255    7.6123 H         1 <0>         0.1830
     42 H17         5.5313    1.2801    8.9410 H         1 <0>         0.1632
     43 H18         3.4365    0.9451   10.2184 H         1 <0>         0.1473
     44 H19         1.1774   -3.5260    9.9894 H         1 <0>         0.2009
@<TRIPOS>BOND
     1    1    6 ar
     2    1    2 ar
     3    1   26 1
     4    2    3 ar
     5    2   27 1
     6    3    4 ar
     7    3   28 1
     8    4    5 ar
     9    4    7 1
    10    5    6 ar
    11    5   29 1
    12    6   30 1
    13    7    8 1
    14    7   31 1
    15    7   32 1
    16    8   13 ar
    17    8    9 ar
    18    9   10 ar
    19    9   33 1
    20   10   11 ar
    21   10   34 1
    22   11   12 ar
    23   11   14 1
    24   12   13 ar
    25   12   35 1
    26   13   36 1
    27   14   15 1
    28   15   16 1
    29   15   37 1
    30   15   38 1
    31   16   17 1
    32   16   39 1
    33   16   40 1
    34   17   25 1
    35   17   18 1
    36   18   19 2
    37   18   41 1
    38   19   20 1
    39   19   42 1
    40   20   21 2
    41   20   43 1
    42   21   25 1
    43   21   22 1
    44   22   23 2
    45   23   24 1
    46   23   44 1
    47   24   25 2
@<TRIPOS>MOLECULE
CHEMBL420866
   53    55     0     0     0
SMALL
USER_CHARGES

@<TRIPOS>ATOM
      1 C1         -1.4483   -0.7997   -0.0701 C.3       1 <0>        -0.0540
      2 N1         -1.5170   -2.2206    0.2965 N.4       1 <0>        -0.3861
      3 C2         -0.6433   -2.4714    1.4505 C.3       1 <0>        -0.0057
      4 C3         -1.1762   -1.7131    2.6679 C.3       1 <0>        -0.1489
      5 C4         -0.2663   -1.9743    3.8699 C.3       1 <0>         0.0627
      6 O1         -0.7641   -1.2661    5.0069 O.3       1 <0>        -0.3124
      7 C5         -0.0656   -1.3918    6.1668 C.ar      1 <0>         0.0947
      8 C6          1.0778   -2.1761    6.2062 C.ar      1 <0>        -0.1674
      9 C7          1.7875   -2.3035    7.3842 C.ar      1 <0>        -0.1532
     10 C8          1.3568   -1.6470    8.5280 C.ar      1 <0>         0.0929
     11 C9          0.2132   -0.8627    8.4884 C.ar      1 <0>        -0.1019
     12 C10        -0.4934   -0.7312    7.3089 C.ar      1 <0>        -0.1082
     13 O2          2.0551   -1.7727    9.6877 O.3       1 <0>        -0.2567
     14 C11         3.1729   -2.5440    9.6785 C.ar      1 <0>         0.1011
     15 C12         4.4048   -1.9751    9.3803 C.ar      1 <0>        -0.1257
     16 C13         5.5412   -2.7544    9.3700 C.ar      1 <0>        -0.0563
     17 C14         5.4535   -4.1176    9.6597 C.ar      1 <0>        -0.0139
     18 C15         4.2134   -4.6858    9.9590 C.ar      1 <0>        -0.0748
     19 C16         3.0823   -3.8987    9.9728 C.ar      1 <0>        -0.1254
     20 C17         6.6694   -4.9568    9.6492 C.2       1 <0>         0.2251
     21 N2          7.8865   -4.5395    9.3894 N.2       1 <0>        -0.4675
     22 C18         8.7254   -5.5836    9.4753 C.2       1 <0>        -0.0381
     23 C19         8.0001   -6.6697    9.7966 C.2       1 <0>        -0.0645
     24 O3          6.7160   -6.2748    9.9098 O.3       1 <0>        -0.1964
     25 C20        -1.0756   -3.0412   -0.8393 C.3       1 <0>         0.0142
     26 C21        -2.0576   -2.8749   -2.0007 C.3       1 <0>        -0.2158
     27 C22        -1.6048   -3.7166   -3.1658 C.2       1 <0>         0.4967
     28 O4         -0.5906   -4.3874   -3.0756 O.co2     1 <0>        -0.6871
     29 O5         -2.2526   -3.7269   -4.1986 O.co2     1 <0>        -0.6715
     30 H1         -0.4216   -0.5403   -0.3284 H         1 <0>         0.1204
     31 H2         -2.0965   -0.6137   -0.9264 H         1 <0>         0.1266
     32 H3         -1.7758   -0.1909    0.7726 H         1 <0>         0.1180
     33 H4         -0.6251   -3.5395    1.6671 H         1 <0>         0.1321
     34 H5          0.3664   -2.1295    1.2229 H         1 <0>         0.1308
     35 H6         -1.1945   -0.6450    2.4513 H         1 <0>         0.0979
     36 H7         -2.1859   -2.0550    2.8954 H         1 <0>         0.0972
     37 H8         -0.2481   -3.0424    4.0865 H         1 <0>         0.0721
     38 H9          0.7434   -1.6325    3.6423 H         1 <0>         0.0718
     39 H10         1.4129   -2.6874    5.3159 H         1 <0>         0.1313
     40 H11         2.6776   -2.9144    7.4150 H         1 <0>         0.1330
     41 H12        -0.1222   -0.3516    9.3787 H         1 <0>         0.1441
     42 H13        -1.3814   -0.1173    7.2770 H         1 <0>         0.1420
     43 H14         4.4717   -0.9208    9.1560 H         1 <0>         0.1428
     44 H15         6.4984   -2.3115    9.1377 H         1 <0>         0.1483
     45 H16         4.1416   -5.7397   10.1836 H         1 <0>         0.1411
     46 H17         2.1236   -4.3365   10.2085 H         1 <0>         0.1415
     47 H18         9.7930   -5.5566    9.3145 H         1 <0>         0.1900
     48 H19         8.3770   -7.6715    9.9411 H         1 <0>         0.2214
     49 H20        -0.0824   -2.7211   -1.1545 H         1 <0>         0.1291
     50 H21        -1.0416   -4.0885   -0.5393 H         1 <0>         0.1297
     51 H22        -3.0507   -3.1949   -1.6855 H         1 <0>         0.0807
     52 H23        -2.0915   -1.8275   -2.3007 H         1 <0>         0.0818
     53 H24        -2.4673   -2.4607    0.5356 H         1 <0>         0.4204
@<TRIPOS>BOND
     1    1    2 1
     2    1   30 1
     3    1   31 1
     4    1   32 1
     5    2    3 1
     6    2   25 1
     7    2   53 1
     8    3    4 1
     9    3   33 1
    10    3   34 1
    11    4    5 1
    12    4   35 1
    13    4   36 1
    14    5    6 1
    15    5   37 1
    16    5   38 1
    17    6    7 1
    18    7   12 ar
    19    7    8 ar
    20    8    9 ar
    21    8   39 1
    22    9   10 ar
    23    9   40 1
    24   10   11 ar
    25   10   13 1
    26   11   12 ar
    27   11   41 1
    28   12   42 1
    29   13   14 1
    30   14   19 ar
    31   14   15 ar
    32   15   16 ar
    33   15   43 1
    34   16   17 ar
    35   16   44 1
    36   17   18 ar
    37   17   20 1
    38   18   19 ar
    39   18   45 1
    40   19   46 1
    41   20   24 1
    42   20   21 2
    43   21   22 1
    44   22   23 2
    45   22   47 1
    46   23   24 1
    47   23   48 1
    48   25   26 1
    49   25   49 1
    50   25   50 1
    51   26   27 1
    52   26   51 1
    53   26   52 1
    54   27   28 2
    55   27   29 1
@<TRIPOS>MOLECULE
CHEMBL479401
   72    74     0     0     0
SMALL
USER_CHARGES

@<TRIPOS>ATOM
      1 C1         -1.4660    1.1583    1.4014 C.3       1 <0>        -0.0605
      2 N1         -0.9056   -0.1123    0.9224 N.4       1 <0>        -0.3874
      3 C2         -1.9973   -1.0048    0.5108 C.3       1 <0>        -0.0040
      4 C3         -2.7218   -0.4022   -0.6944 C.3       1 <0>        -0.1859
      5 C4         -3.8589   -1.3318   -1.1232 C.3       1 <0>        -0.0039
      6 N2         -4.5546   -0.7531   -2.2804 N.4       1 <0>        -0.3719
      7 C5         -5.2073    0.5013   -1.8824 C.3       1 <0>        -0.0680
      8 C6         -5.5676   -1.6995   -2.7662 C.3       1 <0>        -0.0297
      9 C7         -6.1961   -1.1602   -4.0252 C.2       1 <0>         0.4972
     10 O1         -5.8356   -0.0924   -4.4737 O.2       1 <0>        -0.5131
     11 N3         -7.1588   -1.8642   -4.6529 N.am      1 <0>        -0.6314
     12 C8         -7.8610   -1.2922   -5.7218 C.ar      1 <0>         0.0750
     13 C9         -9.1511   -1.7161   -6.0114 C.ar      1 <0>        -0.0909
     14 C10        -9.8427   -1.1520   -7.0650 C.ar      1 <0>        -0.1722
     15 C11        -9.2487   -0.1617   -7.8342 C.ar      1 <0>         0.1330
     16 C12        -7.9595    0.2623   -7.5452 C.ar      1 <0>        -0.1297
     17 C13        -7.2692   -0.2971   -6.4883 C.ar      1 <0>        -0.0864
     18 O2         -9.9299    0.3931   -8.8717 O.3       1 <0>        -0.2522
     19 C14       -11.2464    0.0854   -9.0077 C.ar      1 <0>         0.0710
     20 C15       -12.1889    0.6844   -8.1841 C.ar      1 <0>        -0.1315
     21 C16       -13.5266    0.3698   -8.3244 C.ar      1 <0>        -0.1043
     22 C17       -13.9267   -0.5415   -9.2843 C.ar      1 <0>        -0.1114
     23 C18       -12.9896   -1.1398  -10.1063 C.ar      1 <0>        -0.1028
     24 C19       -11.6513   -0.8241   -9.9743 C.ar      1 <0>        -0.1199
     25 C20        -0.1357   -0.7456    2.0015 C.3       1 <0>        -0.0067
     26 C21         1.0736    0.1264    2.3448 C.3       1 <0>        -0.1136
     27 C22         2.0229    0.1767    1.1460 C.3       1 <0>        -0.1237
     28 C23         3.2323    1.0487    1.4893 C.3       1 <0>        -0.0934
     29 C24         3.9639    0.4545    2.6945 C.3       1 <0>        -0.1584
     30 C25         3.0146    0.4042    3.8934 C.3       1 <0>        -0.0958
     31 C26         1.8052   -0.4678    3.5500 C.3       1 <0>        -0.1088
     32 C27         5.1551    1.3134    3.0327 C.2       1 <0>         0.4892
     33 O3          5.5449    1.3885    4.1855 O.co2     1 <0>        -0.6899
     34 O4          5.7290    1.9332    2.1535 O.co2     1 <0>        -0.6946
     35 H1         -0.6560    1.8206    1.7068 H         1 <0>         0.1368
     36 H2         -2.0372    1.6282    0.6008 H         1 <0>         0.1178
     37 H3         -2.1208    0.9689    2.2520 H         1 <0>         0.1268
     38 H4         -1.5882   -1.9781    0.2395 H         1 <0>         0.1405
     39 H5         -2.7002   -1.1233    1.3354 H         1 <0>         0.1397
     40 H6         -3.1309    0.5711   -0.4231 H         1 <0>         0.1130
     41 H7         -2.0189   -0.2837   -1.5190 H         1 <0>         0.1132
     42 H8         -3.4498   -2.3050   -1.3945 H         1 <0>         0.1443
     43 H9         -4.5619   -1.4502   -0.2986 H         1 <0>         0.1437
     44 H10        -4.4556    1.2035   -1.5219 H         1 <0>         0.1252
     45 H11        -5.7234    0.9307   -2.7410 H         1 <0>         0.1481
     46 H12        -5.9271    0.3005   -1.0889 H         1 <0>         0.1249
     47 H13        -5.0964   -2.6593   -2.9777 H         1 <0>         0.1653
     48 H14        -6.3360   -1.8320   -2.0045 H         1 <0>         0.1659
     49 H15        -7.3655   -2.7670   -4.3646 H         1 <0>         0.4208
     50 H16        -9.6134   -2.4872   -5.4130 H         1 <0>         0.1339
     51 H17       -10.8460   -1.4819   -7.2906 H         1 <0>         0.1399
     52 H18        -7.4977    1.0332   -8.1442 H         1 <0>         0.1428
     53 H19        -6.2674    0.0362   -6.2607 H         1 <0>         0.1601
     54 H20       -11.8768    1.3957   -7.4337 H         1 <0>         0.1294
     55 H21       -14.2605    0.8357   -7.6836 H         1 <0>         0.1333
     56 H22       -14.9730   -0.7866   -9.3919 H         1 <0>         0.1329
     57 H23       -13.3047   -1.8516  -10.8550 H         1 <0>         0.1355
     58 H24       -10.9202   -1.2884  -10.6196 H         1 <0>         0.1338
     59 H25        -0.7674   -0.8541    2.8831 H         1 <0>         0.1320
     60 H26         0.2056   -1.7282    1.6759 H         1 <0>         0.1327
     61 H27         0.7378    1.1352    2.5848 H         1 <0>         0.0936
     62 H28         2.3588   -0.8321    0.9060 H         1 <0>         0.0733
     63 H29         1.5018    0.6000    0.2873 H         1 <0>         0.0421
     64 H30         3.9086    1.0845    0.6352 H         1 <0>         0.0770
     65 H31         2.8965    2.0575    1.7293 H         1 <0>         0.0583
     66 H32         4.2997   -0.5544    2.4545 H         1 <0>         0.0644
     67 H33         3.5357   -0.0191    4.7520 H         1 <0>         0.0795
     68 H34         2.6787    1.4130    4.1334 H         1 <0>         0.0582
     69 H35         1.1289   -0.5036    4.4041 H         1 <0>         0.0661
     70 H36         2.1410   -1.4766    3.3100 H         1 <0>         0.0690
     71 H37        -3.8882   -0.5672   -3.0149 H         1 <0>         0.4354
     72 H38        -0.2995    0.0630    0.1350 H         1 <0>         0.4272
@<TRIPOS>BOND
     1    1    2 1
     2    1   35 1
     3    1   36 1
     4    1   37 1
     5    2    3 1
     6    2   25 1
     7    2   72 1
     8    3    4 1
     9    3   38 1
    10    3   39 1
    11    4    5 1
    12    4   40 1
    13    4   41 1
    14    5    6 1
    15    5   42 1
    16    5   43 1
    17    6    7 1
    18    6    8 1
    19    6   71 1
    20    7   44 1
    21    7   45 1
    22    7   46 1
    23    8    9 1
    24    8   47 1
    25    8   48 1
    26    9   10 2
    27    9   11 am
    28   11   12 1
    29   11   49 1
    30   12   17 ar
    31   12   13 ar
    32   13   14 ar
    33   13   50 1
    34   14   15 ar
    35   14   51 1
    36   15   16 ar
    37   15   18 1
    38   16   17 ar
    39   16   52 1
    40   17   53 1
    41   18   19 1
    42   19   24 ar
    43   19   20 ar
    44   20   21 ar
    45   20   54 1
    46   21   22 ar
    47   21   55 1
    48   22   23 ar
    49   22   56 1
    50   23   24 ar
    51   23   57 1
    52   24   58 1
    53   25   26 1
    54   25   59 1
    55   25   60 1
    56   26   31 1
    57   26   27 1
    58   26   61 1
    59   27   28 1
    60   27   62 1
    61   27   63 1
    62   28   29 1
    63   28   64 1
    64   28   65 1
    65   29   30 1
    66   29   32 1
    67   29   66 1
    68   30   31 1
    69   30   67 1
    70   30   68 1
    71   31   69 1
    72   31   70 1
    73   32   33 2
    74   32   34 1
@<TRIPOS>MOLECULE
CHEMBL479401__1
   71    73     0     0     0
SMALL
USER_CHARGES

@<TRIPOS>ATOM
      1 C1          1.9219    1.1971    0.5738 C.3       1 <0>         0.0147
      2 N1          1.2534   -0.0887    0.3331 N.3       1 <0>        -0.5359
      3 C2          1.4594   -1.0082    1.4601 C.3       1 <0>         0.0582
      4 C3          0.7548   -0.4586    2.7020 C.3       1 <0>        -0.1486
      5 C4          0.9693   -1.4162    3.8758 C.3       1 <0>        -0.0080
      6 N2          0.2928   -0.8885    5.0682 N.4       1 <0>        -0.3711
      7 C5          0.9284    0.3722    5.4741 C.3       1 <0>        -0.0634
      8 C6          0.3968   -1.8636    6.1620 C.3       1 <0>        -0.0286
      9 C7         -0.4003   -1.3781    7.3452 C.2       1 <0>         0.5003
     10 O1         -0.9964   -0.3236    7.2834 O.2       1 <0>        -0.5095
     11 N3         -0.4509   -2.1158    8.4721 N.am      1 <0>        -0.6387
     12 C8         -1.0472   -1.5915    9.6263 C.ar      1 <0>         0.0847
     13 C9         -0.6495   -2.0405   10.8787 C.ar      1 <0>        -0.0950
     14 C10        -1.2376   -1.5234   12.0159 C.ar      1 <0>        -0.1726
     15 C11        -2.2257   -0.5554   11.9075 C.ar      1 <0>         0.1261
     16 C12        -2.6234   -0.1063   10.6564 C.ar      1 <0>        -0.1275
     17 C13        -2.0320   -0.6186    9.5186 C.ar      1 <0>        -0.0882
     18 O2         -2.8046   -0.0470   13.0276 O.3       1 <0>        -0.2543
     19 C14        -2.2635   -0.3744   14.2302 C.ar      1 <0>         0.0754
     20 C15        -1.0976    0.2437   14.6592 C.ar      1 <0>        -0.1317
     21 C16        -0.5496   -0.0911   15.8822 C.ar      1 <0>        -0.1046
     22 C17        -1.1616   -1.0416   16.6785 C.ar      1 <0>        -0.1141
     23 C18        -2.3234   -1.6591   16.2534 C.ar      1 <0>        -0.1037
     24 C19        -2.8790   -1.3235   15.0340 C.ar      1 <0>        -0.1211
     25 C20         1.7083   -0.6907   -0.9273 C.3       1 <0>         0.0621
     26 C21         1.2556    0.1802   -2.1010 C.3       1 <0>        -0.0830
     27 C22        -0.2724    0.1768   -2.1790 C.3       1 <0>        -0.0998
     28 C23        -0.7251    1.0477   -3.3527 C.3       1 <0>        -0.0933
     29 C24        -0.1467    0.4898   -4.6547 C.3       1 <0>        -0.1538
     30 C25         1.3813    0.4932   -4.5766 C.3       1 <0>        -0.0911
     31 C26         1.8340   -0.3777   -3.4030 C.3       1 <0>        -0.1125
     32 C27        -0.5925    1.3476   -5.8107 C.2       1 <0>         0.4916
     33 O3          0.1173    1.4602   -6.7956 O.co2     1 <0>        -0.7000
     34 O4         -1.6631    1.9289   -5.7611 O.co2     1 <0>        -0.7009
     35 H1          2.9920    1.0323    0.6994 H         1 <0>         0.0269
     36 H2          1.7534    1.8588   -0.2758 H         1 <0>         0.0828
     37 H3          1.5162    1.6541    1.4764 H         1 <0>         0.0626
     38 H4          1.0469   -1.9860    1.2113 H         1 <0>         0.0832
     39 H5          2.5265   -1.1042    1.6604 H         1 <0>         0.0405
     40 H6          1.1672    0.5192    2.9508 H         1 <0>         0.0893
     41 H7         -0.3123   -0.3625    2.5018 H         1 <0>         0.0990
     42 H8          0.5569   -2.3940    3.6270 H         1 <0>         0.1340
     43 H9          2.0364   -1.5123    4.0761 H         1 <0>         0.1310
     44 H10         0.8513    1.0957    4.6625 H         1 <0>         0.1295
     45 H11         0.4264    0.7637    6.3589 H         1 <0>         0.1397
     46 H12         1.9790    0.1925    5.7021 H         1 <0>         0.1189
     47 H13         0.0052   -2.8251    5.8300 H         1 <0>         0.1626
     48 H14         1.4420   -1.9768    6.4498 H         1 <0>         0.1620
     49 H15        -0.0744   -3.0097    8.4839 H         1 <0>         0.4201
     50 H16         0.1193   -2.7942   10.9632 H         1 <0>         0.1332
     51 H17        -0.9286   -1.8728   12.9900 H         1 <0>         0.1375
     52 H18        -3.3925    0.6472   10.5726 H         1 <0>         0.1418
     53 H19        -2.3385   -0.2658    8.5450 H         1 <0>         0.1622
     54 H20        -0.6189    0.9856   14.0374 H         1 <0>         0.1299
     55 H21         0.3578    0.3897   16.2166 H         1 <0>         0.1324
     56 H22        -0.7311   -1.3024   17.6340 H         1 <0>         0.1313
     57 H23        -2.7992   -2.4014   16.8770 H         1 <0>         0.1341
     58 H24        -3.7889   -1.8028   14.7043 H         1 <0>         0.1334
     59 H25         2.7961   -0.7604   -0.9250 H         1 <0>         0.0350
     60 H26         1.2805   -1.6881   -1.0288 H         1 <0>         0.0755
     61 H27         1.6096    1.2006   -1.9540 H         1 <0>         0.0689
     62 H28        -0.6264   -0.8436   -2.3260 H         1 <0>         0.0505
     63 H29        -0.6845    0.5743   -1.2515 H         1 <0>         0.0601
     64 H30        -1.8137    1.0453   -3.4083 H         1 <0>         0.0633
     65 H31        -0.3711    2.0681   -3.2058 H         1 <0>         0.0495
     66 H32        -0.5007   -0.5306   -4.8016 H         1 <0>         0.0589
     67 H33         1.7934    0.0957   -5.5042 H         1 <0>         0.0658
     68 H34         1.7354    1.5136   -4.4297 H         1 <0>         0.0514
     69 H35         2.9226   -0.3753   -3.3474 H         1 <0>         0.0510
     70 H36         1.4800   -1.3981   -3.5499 H         1 <0>         0.0566
     71 H37        -0.6797   -0.7222    4.8572 H         1 <0>         0.4336
@<TRIPOS>BOND
     1    1    2 1
     2    1   35 1
     3    1   36 1
     4    1   37 1
     5    2    3 1
     6    2   25 1
     7    3    4 1
     8    3   38 1
     9    3   39 1
    10    4    5 1
    11    4   40 1
    12    4   41 1
    13    5    6 1
    14    5   42 1
    15    5   43 1
    16    6    7 1
    17    6    8 1
    18    6   71 1
    19    7   44 1
    20    7   45 1
    21    7   46 1
    22    8    9 1
    23    8   47 1
    24    8   48 1
    25    9   10 2
    26    9   11 am
    27   11   12 1
    28   11   49 1
    29   12   17 ar
    30   12   13 ar
    31   13   14 ar
    32   13   50 1
    33   14   15 ar
    34   14   51 1
    35   15   16 ar
    36   15   18 1
    37   16   17 ar
    38   16   52 1
    39   17   53 1
    40   18   19 1
    41   19   24 ar
    42   19   20 ar
    43   20   21 ar
    44   20   54 1
    45   21   22 ar
    46   21   55 1
    47   22   23 ar
    48   22   56 1
    49   23   24 ar
    50   23   57 1
    51   24   58 1
    52   25   26 1
    53   25   59 1
    54   25   60 1
    55   26   31 1
    56   26   27 1
    57   26   61 1
    58   27   28 1
    59   27   62 1
    60   27   63 1
    61   28   29 1
    62   28   64 1
    63   28   65 1
    64   29   30 1
    65   29   32 1
    66   29   66 1
    67   30   31 1
    68   30   67 1
    69   30   68 1
    70   31   69 1
    71   31   70 1
    72   32   33 2
    73   32   34 1
@<TRIPOS>MOLECULE
CHEMBL479401__2
   71    73     0     0     0
SMALL
USER_CHARGES

@<TRIPOS>ATOM
      1 C1         -0.3834    1.3939   -1.8667 C.3       1 <0>        -0.0563
      2 N1         -0.2710    0.1157   -1.1515 N.4       1 <0>        -0.3861
      3 C2          0.5916   -0.7974   -1.9131 C.3       1 <0>        -0.0074
      4 C3          2.0134   -0.2344   -1.9615 C.3       1 <0>        -0.1490
      5 C4          2.9119   -1.1854   -2.7547 C.3       1 <0>         0.0590
      6 N2          4.2770   -0.6448   -2.8012 N.3       1 <0>        -0.5230
      7 C5          4.3226    0.6043   -3.5730 C.3       1 <0>         0.0107
      8 C6          5.2168   -1.6342   -3.3450 C.3       1 <0>         0.0369
      9 C7          6.6290   -1.1448   -3.1518 C.2       1 <0>         0.5134
     10 O1          6.8325   -0.0768   -2.6141 O.2       1 <0>        -0.4988
     11 N3          7.6658   -1.8938   -3.5766 N.am      1 <0>        -0.6681
     12 C8          8.9648   -1.3696   -3.5528 C.ar      1 <0>         0.1090
     13 C9          9.9205   -1.8413   -4.4428 C.ar      1 <0>        -0.1095
     14 C10        11.2006   -1.3244   -4.4188 C.ar      1 <0>        -0.1715
     15 C11        11.5321   -0.3337   -3.5056 C.ar      1 <0>         0.1094
     16 C12        10.5775    0.1380   -2.6161 C.ar      1 <0>        -0.1250
     17 C13         9.2955   -0.3742   -2.6429 C.ar      1 <0>        -0.0963
     18 O2         12.7927    0.1746   -3.4822 O.3       1 <0>        -0.2585
     19 C14        13.6415   -0.1782   -4.4829 C.ar      1 <0>         0.0822
     20 C15        13.5229    0.4093   -5.7344 C.ar      1 <0>        -0.1327
     21 C16        14.3871    0.0488   -6.7500 C.ar      1 <0>        -0.1051
     22 C17        15.3693   -0.8970   -6.5205 C.ar      1 <0>        -0.1178
     23 C18        15.4897   -1.4840   -5.2743 C.ar      1 <0>        -0.1047
     24 C19        14.6321   -1.1225   -4.2535 C.ar      1 <0>        -0.1231
     25 C20        -1.6051   -0.4810   -1.0026 C.3       1 <0>        -0.0056
     26 C21        -2.4654    0.4107   -0.1051 C.3       1 <0>        -0.1132
     27 C22        -1.8738    0.4366    1.3056 C.3       1 <0>        -0.1254
     28 C23        -2.7341    1.3284    2.2031 C.3       1 <0>        -0.0922
     29 C24        -4.1591    0.7738    2.2577 C.3       1 <0>        -0.1574
     30 C25        -4.7506    0.7479    0.8469 C.3       1 <0>        -0.0943
     31 C26        -3.8903   -0.1438   -0.0506 C.3       1 <0>        -0.1083
     32 C27        -5.0064    1.6522    3.1417 C.2       1 <0>         0.4906
     33 O3         -6.2014    1.7622    2.9262 O.co2     1 <0>        -0.6939
     34 O4         -4.4970    2.2528    4.0725 O.co2     1 <0>        -0.6959
     35 H1          0.6065    1.8366   -1.9772 H         1 <0>         0.1220
     36 H2         -0.8165    1.2220   -2.8521 H         1 <0>         0.1211
     37 H3         -1.0234    2.0714   -1.3016 H         1 <0>         0.1287
     38 H4          0.6038   -1.7740   -1.4292 H         1 <0>         0.1303
     39 H5          0.2065   -0.8995   -2.9277 H         1 <0>         0.1272
     40 H6          2.0012    0.7422   -2.4454 H         1 <0>         0.0893
     41 H7          2.3985   -0.1323   -0.9469 H         1 <0>         0.0982
     42 H8          2.9241   -2.1620   -2.2708 H         1 <0>         0.0869
     43 H9          2.5268   -1.2875   -3.7693 H         1 <0>         0.0466
     44 H10         3.6698    1.3429   -3.1078 H         1 <0>         0.0708
     45 H11         5.3445    0.9829   -3.5915 H         1 <0>         0.0931
     46 H12         3.9872    0.4139   -4.5925 H         1 <0>         0.0267
     47 H13         5.0868   -2.5831   -2.8246 H         1 <0>         0.1108
     48 H14         5.0228   -1.7735   -4.4085 H         1 <0>         0.0726
     49 H15         7.5126   -2.7958   -3.8988 H         1 <0>         0.4115
     50 H16         9.6627   -2.6127   -5.1534 H         1 <0>         0.1291
     51 H17        11.9442   -1.6914   -5.1108 H         1 <0>         0.1324
     52 H18        10.8360    0.9091   -1.9055 H         1 <0>         0.1373
     53 H19         8.5513   -0.0038   -1.9535 H         1 <0>         0.1639
     54 H20        12.7555    1.1475   -5.9144 H         1 <0>         0.1297
     55 H21        14.2952    0.5057   -7.7242 H         1 <0>         0.1308
     56 H22        16.0435   -1.1780   -7.3160 H         1 <0>         0.1295
     57 H23        16.2575   -2.2227   -5.0978 H         1 <0>         0.1324
     58 H24        14.7293   -1.5780   -3.2791 H         1 <0>         0.1325
     59 H25        -2.0743   -0.5710   -1.9824 H         1 <0>         0.1274
     60 H26        -1.5129   -1.4692   -0.5518 H         1 <0>         0.1289
     61 H27        -2.4846    1.4227   -0.5097 H         1 <0>         0.0922
     62 H28        -1.8546   -0.5754    1.7102 H         1 <0>         0.0726
     63 H29        -0.8587    0.8317    1.2668 H         1 <0>         0.0466
     64 H30        -2.3127    1.3468    3.2082 H         1 <0>         0.0754
     65 H31        -2.7533    2.3403    1.7986 H         1 <0>         0.0574
     66 H32        -4.1399   -0.2382    2.6622 H         1 <0>         0.0638
     67 H33        -5.7658    0.3529    0.8858 H         1 <0>         0.0762
     68 H34        -4.7698    1.7599    0.4424 H         1 <0>         0.0570
     69 H35        -4.3118   -0.1622   -1.0556 H         1 <0>         0.0645
     70 H36        -3.8711   -1.1558    0.3540 H         1 <0>         0.0677
     71 H37         0.1300    0.2748   -0.2394 H         1 <0>         0.4252
@<TRIPOS>BOND
     1    1    2 1
     2    1   35 1
     3    1   36 1
     4    1   37 1
     5    2    3 1
     6    2   25 1
     7    2   71 1
     8    3    4 1
     9    3   38 1
    10    3   39 1
    11    4    5 1
    12    4   40 1
    13    4   41 1
    14    5    6 1
    15    5   42 1
    16    5   43 1
    17    6    7 1
    18    6    8 1
    19    7   44 1
    20    7   45 1
    21    7   46 1
    22    8    9 1
    23    8   47 1
    24    8   48 1
    25    9   10 2
    26    9   11 am
    27   11   12 1
    28   11   49 1
    29   12   17 ar
    30   12   13 ar
    31   13   14 ar
    32   13   50 1
    33   14   15 ar
    34   14   51 1
    35   15   16 ar
    36   15   18 1
    37   16   17 ar
    38   16   52 1
    39   17   53 1
    40   18   19 1
    41   19   24 ar
    42   19   20 ar
    43   20   21 ar
    44   20   54 1
    45   21   22 ar
    46   21   55 1
    47   22   23 ar
    48   22   56 1
    49   23   24 ar
    50   23   57 1
    51   24   58 1
    52   25   26 1
    53   25   59 1
    54   25   60 1
    55   26   31 1
    56   26   27 1
    57   26   61 1
    58   27   28 1
    59   27   62 1
    60   27   63 1
    61   28   29 1
    62   28   64 1
    63   28   65 1
    64   29   30 1
    65   29   32 1
    66   29   66 1
    67   30   31 1
    68   30   67 1
    69   30   68 1
    70   31   69 1
    71   31   70 1
    72   32   33 2
    73   32   34 1
@<TRIPOS>MOLECULE
CHEMBL479955
   62    66     0     0     0
SMALL
USER_CHARGES

@<TRIPOS>ATOM
      1 C1         -0.2279   -0.4330    1.5084 C.ar      1 <0>        -0.1122
      2 C2          0.8462    0.4261    1.6107 C.ar      1 <0>        -0.0843
      3 C3          2.1350   -0.0361    1.3323 C.ar      1 <0>        -0.0883
      4 C4          2.3257   -1.3670    0.9521 C.ar      1 <0>        -0.0841
      5 C5          1.2422   -2.2147    0.8540 C.ar      1 <0>        -0.1091
      6 C6         -0.0315   -1.7499    1.1312 C.ar      1 <0>        -0.1834
      7 C7         -1.2102   -2.6825    1.0222 C.3       1 <0>         0.0513
      8 N1         -1.7527   -2.6286   -0.3419 N.4       1 <0>        -0.3818
      9 C8         -2.2841   -1.2855   -0.6029 C.3       1 <0>        -0.0154
     10 C9         -2.7769   -1.1999   -2.0490 C.3       1 <0>        -0.1401
     11 C10        -3.8804   -2.2387   -2.2689 C.3       1 <0>        -0.1525
     12 C11        -3.3366   -3.6278   -1.9222 C.3       1 <0>         0.1369
     13 C12        -2.8231   -3.6234   -0.4808 C.3       1 <0>        -0.0138
     14 N2         -2.2385   -3.9642   -2.8317 N.pl3     1 <0>        -0.7566
     15 C13        -2.5135   -4.5314   -4.0809 C.ar      1 <0>         0.1752
     16 C14        -3.8276   -4.7703   -4.4612 C.ar      1 <0>        -0.1507
     17 C15        -4.0983   -5.3296   -5.6944 C.ar      1 <0>        -0.1470
     18 C16        -3.0578   -5.6530   -6.5533 C.ar      1 <0>         0.0823
     19 C17        -1.7448   -5.4150   -6.1738 C.ar      1 <0>        -0.0946
     20 C18        -1.4728   -4.8504   -4.9433 C.ar      1 <0>        -0.1439
     21 O1         -3.3251   -6.2037   -7.7674 O.3       1 <0>        -0.2592
     22 C19        -4.6251   -6.4116   -8.1010 C.ar      1 <0>         0.1043
     23 C20        -5.3388   -5.4180   -8.7593 C.ar      1 <0>        -0.1264
     24 C21        -6.6582   -5.6250   -9.0991 C.ar      1 <0>        -0.0561
     25 C22        -7.2775   -6.8355   -8.7811 C.ar      1 <0>        -0.0151
     26 C23        -6.5566   -7.8319   -8.1197 C.ar      1 <0>        -0.0748
     27 C24        -5.2361   -7.6194   -7.7880 C.ar      1 <0>        -0.1264
     28 C25        -8.6920   -7.0612   -9.1431 C.2       1 <0>         0.2255
     29 N3         -9.4691   -6.2074   -9.7676 N.2       1 <0>        -0.4678
     30 C26       -10.6810   -6.7632   -9.9210 C.2       1 <0>        -0.0380
     31 C27       -10.6433   -7.9916   -9.3747 C.2       1 <0>        -0.0651
     32 O2         -9.3977   -8.1779   -8.8934 O.3       1 <0>        -0.1968
     33 C28         3.2890    0.8769    1.4390 C.2       1 <0>         0.5088
     34 O3          3.1188    2.0413    1.7717 O.co2     1 <0>        -0.6719
     35 O4          4.4158    0.4693    1.1947 O.co2     1 <0>        -0.6716
     36 H1         -1.2242   -0.0783    1.7276 H         1 <0>         0.1221
     37 H2          0.6914    1.4536    1.9048 H         1 <0>         0.1389
     38 H3          3.3191   -1.7310    0.7351 H         1 <0>         0.1389
     39 H4          1.3880   -3.2435    0.5599 H         1 <0>         0.1216
     40 H5         -0.8903   -3.7001    1.2461 H         1 <0>         0.1316
     41 H6         -1.9802   -2.3793    1.7317 H         1 <0>         0.1317
     42 H7         -3.1134   -1.0852    0.0755 H         1 <0>         0.1282
     43 H8         -1.4985   -0.5470   -0.4429 H         1 <0>         0.1382
     44 H9         -3.1726   -0.2025   -2.2403 H         1 <0>         0.1105
     45 H10        -1.9482   -1.3998   -2.7284 H         1 <0>         0.0872
     46 H11        -4.7303   -2.0092   -1.6262 H         1 <0>         0.0882
     47 H12        -4.1954   -2.2206   -3.3122 H         1 <0>         0.0954
     48 H13        -4.1325   -4.3657   -2.0229 H         1 <0>         0.1199
     49 H14        -2.4354   -4.6109   -0.2307 H         1 <0>         0.1348
     50 H15        -3.6409   -3.3732    0.1950 H         1 <0>         0.1414
     51 H16        -1.3207   -3.7937   -2.5679 H         1 <0>         0.3912
     52 H17        -4.6376   -4.5189   -3.7926 H         1 <0>         0.1252
     53 H18        -5.1202   -5.5158   -5.9902 H         1 <0>         0.1300
     54 H19        -0.9353   -5.6673   -6.8428 H         1 <0>         0.1375
     55 H20        -0.4508   -4.6612   -4.6498 H         1 <0>         0.1316
     56 H21        -4.8591   -4.4821   -9.0049 H         1 <0>         0.1424
     57 H22        -7.2126   -4.8518   -9.6102 H         1 <0>         0.1478
     58 H23        -7.0323   -8.7693   -7.8719 H         1 <0>         0.1404
     59 H24        -4.6766   -8.3912   -7.2804 H         1 <0>         0.1409
     60 H25       -11.5349   -6.3053  -10.3980 H         1 <0>         0.1899
     61 H26       -11.4584   -8.6989   -9.3325 H         1 <0>         0.2212
     62 H27        -1.0182   -2.8319   -1.0031 H         1 <0>         0.4160
@<TRIPOS>BOND
     1    1    6 ar
     2    1    2 ar
     3    1   36 1
     4    2    3 ar
     5    2   37 1
     6    3    4 ar
     7    3   33 1
     8    4    5 ar
     9    4   38 1
    10    5    6 ar
    11    5   39 1
    12    6    7 1
    13    7    8 1
    14    7   40 1
    15    7   41 1
    16    8   13 1
    17    8    9 1
    18    8   62 1
    19    9   10 1
    20    9   42 1
    21    9   43 1
    22   10   11 1
    23   10   44 1
    24   10   45 1
    25   11   12 1
    26   11   46 1
    27   11   47 1
    28   12   13 1
    29   12   14 1
    30   12   48 1
    31   13   49 1
    32   13   50 1
    33   14   15 1
    34   14   51 1
    35   15   20 ar
    36   15   16 ar
    37   16   17 ar
    38   16   52 1
    39   17   18 ar
    40   17   53 1
    41   18   19 ar
    42   18   21 1
    43   19   20 ar
    44   19   54 1
    45   20   55 1
    46   21   22 1
    47   22   27 ar
    48   22   23 ar
    49   23   24 ar
    50   23   56 1
    51   24   25 ar
    52   24   57 1
    53   25   26 ar
    54   25   28 1
    55   26   27 ar
    56   26   58 1
    57   27   59 1
    58   28   32 1
    59   28   29 2
    60   29   30 1
    61   30   31 2
    62   30   60 1
    63   31   32 1
    64   31   61 1
    65   33   34 2
    66   33   35 1
@<TRIPOS>MOLECULE
CHEMBL479955__1
   62    66     0     0     0
SMALL
USER_CHARGES

@<TRIPOS>ATOM
      1 C1         -2.1293    3.5472   -1.4890 C.ar      1 <0>        -0.1125
      2 C2         -1.1858    4.5363   -1.6727 C.ar      1 <0>        -0.0845
      3 C3          0.1724    4.2087   -1.6806 C.ar      1 <0>        -0.0883
      4 C4          0.5646    2.8796   -1.5021 C.ar      1 <0>        -0.0843
      5 C5         -0.3900    1.9010   -1.3195 C.ar      1 <0>        -0.1080
      6 C6         -1.7335    2.2329   -1.3129 C.ar      1 <0>        -0.1830
      7 C7         -2.7704    1.1579   -1.1123 C.3       1 <0>         0.0532
      8 N1         -3.1642    0.6081   -2.4164 N.4       1 <0>        -0.3770
      9 C8         -3.8244    1.6535   -3.2074 C.3       1 <0>        -0.0161
     10 C9         -4.1642    1.1093   -4.5966 C.3       1 <0>        -0.1423
     11 C10        -5.1019   -0.0929   -4.4526 C.3       1 <0>        -0.1538
     12 C11        -4.4331   -1.1460   -3.5644 C.3       1 <0>         0.1407
     13 C12        -4.0834   -0.5182   -2.2134 C.3       1 <0>        -0.0161
     14 N2         -5.3523   -2.2680   -3.3591 N.pl3     1 <0>        -0.7430
     15 C13        -5.4182   -3.2999   -4.3018 C.ar      1 <0>         0.1768
     16 C14        -4.6081   -3.2636   -5.4292 C.ar      1 <0>        -0.1552
     17 C15        -4.6733   -4.2827   -6.3589 C.ar      1 <0>        -0.1456
     18 C16        -5.5478   -5.3425   -6.1668 C.ar      1 <0>         0.0800
     19 C17        -6.3576   -5.3792   -5.0410 C.ar      1 <0>        -0.0944
     20 C18        -6.2894   -4.3637   -4.1075 C.ar      1 <0>        -0.1448
     21 O1         -5.6114   -6.3455   -7.0827 O.3       1 <0>        -0.2594
     22 C19        -4.7949   -6.2730   -8.1654 C.ar      1 <0>         0.1035
     23 C20        -3.5273   -6.8396   -8.1164 C.ar      1 <0>        -0.1266
     24 C21        -2.6957   -6.7677   -9.2128 C.ar      1 <0>        -0.0563
     25 C22        -3.1287   -6.1247  -10.3743 C.ar      1 <0>        -0.0141
     26 C23        -4.4036   -5.5567  -10.4198 C.ar      1 <0>        -0.0749
     27 C24        -5.2314   -5.6373   -9.3210 C.ar      1 <0>        -0.1264
     28 C25        -2.2400   -6.0449  -11.5519 C.2       1 <0>         0.2244
     29 N3         -1.0279   -6.5423  -11.6326 N.2       1 <0>        -0.4674
     30 C26        -0.5346   -6.2743  -12.8516 C.2       1 <0>        -0.0379
     31 C27        -1.4720   -5.5939  -13.5352 C.2       1 <0>        -0.0644
     32 O2         -2.5391   -5.4559  -12.7227 O.3       1 <0>        -0.1967
     33 C28         1.1876    5.2611   -1.8770 C.2       1 <0>         0.5088
     34 O3          0.8410    6.4234   -2.0334 O.co2     1 <0>        -0.6721
     35 O4          2.3756    4.9711   -1.8834 O.co2     1 <0>        -0.6716
     36 H1         -3.1793    3.7996   -1.4782 H         1 <0>         0.1220
     37 H2         -1.4962    5.5615   -1.8104 H         1 <0>         0.1388
     38 H3          1.6127    2.6191   -1.5075 H         1 <0>         0.1388
     39 H4         -0.0884    0.8732   -1.1818 H         1 <0>         0.1222
     40 H5         -2.3546    0.3629   -0.4934 H         1 <0>         0.1320
     41 H6         -3.6441    1.5835   -0.6187 H         1 <0>         0.1305
     42 H7         -4.7407    1.9642   -2.7053 H         1 <0>         0.1273
     43 H8         -3.1571    2.5096   -3.3062 H         1 <0>         0.1402
     44 H9         -4.6559    1.8864   -5.1817 H         1 <0>         0.1144
     45 H10        -3.2485    0.7985   -5.0997 H         1 <0>         0.0884
     46 H11        -6.0382    0.2278   -3.9959 H         1 <0>         0.0842
     47 H12        -5.3018   -0.5190   -5.4357 H         1 <0>         0.0944
     48 H13        -3.5230   -1.5036   -4.0460 H         1 <0>         0.0977
     49 H14        -3.6072   -1.2653   -1.5784 H         1 <0>         0.1341
     50 H15        -4.9941   -0.1612   -1.7325 H         1 <0>         0.1313
     51 H16        -5.9153   -2.2956   -2.5697 H         1 <0>         0.4049
     52 H17        -3.9276   -2.4385   -5.5790 H         1 <0>         0.1231
     53 H18        -4.0437   -4.2544   -7.2359 H         1 <0>         0.1299
     54 H19        -7.0384   -6.2043   -4.8923 H         1 <0>         0.1371
     55 H20        -6.9168   -4.3947   -3.2290 H         1 <0>         0.1320
     56 H21        -3.1932   -7.3368   -7.2178 H         1 <0>         0.1422
     57 H22        -1.7102   -7.2079   -9.1738 H         1 <0>         0.1479
     58 H23        -4.7418   -5.0582  -11.3162 H         1 <0>         0.1405
     59 H24        -6.2192   -5.2021   -9.3569 H         1 <0>         0.1407
     60 H25         0.4417   -6.5549  -13.2184 H         1 <0>         0.1901
     61 H26        -1.3871   -5.2289  -14.5481 H         1 <0>         0.2214
     62 H27        -2.3430    0.2865   -2.9065 H         1 <0>         0.4231
@<TRIPOS>BOND
     1    1    6 ar
     2    1    2 ar
     3    1   36 1
     4    2    3 ar
     5    2   37 1
     6    3    4 ar
     7    3   33 1
     8    4    5 ar
     9    4   38 1
    10    5    6 ar
    11    5   39 1
    12    6    7 1
    13    7    8 1
    14    7   40 1
    15    7   41 1
    16    8   13 1
    17    8    9 1
    18    8   62 1
    19    9   10 1
    20    9   42 1
    21    9   43 1
    22   10   11 1
    23   10   44 1
    24   10   45 1
    25   11   12 1
    26   11   46 1
    27   11   47 1
    28   12   13 1
    29   12   14 1
    30   12   48 1
    31   13   49 1
    32   13   50 1
    33   14   15 1
    34   14   51 1
    35   15   20 ar
    36   15   16 ar
    37   16   17 ar
    38   16   52 1
    39   17   18 ar
    40   17   53 1
    41   18   19 ar
    42   18   21 1
    43   19   20 ar
    44   19   54 1
    45   20   55 1
    46   21   22 1
    47   22   27 ar
    48   22   23 ar
    49   23   24 ar
    50   23   56 1
    51   24   25 ar
    52   24   57 1
    53   25   26 ar
    54   25   28 1
    55   26   27 ar
    56   26   58 1
    57   27   59 1
    58   28   32 1
    59   28   29 2
    60   29   30 1
    61   30   31 2
    62   30   60 1
    63   31   32 1
    64   31   61 1
    65   33   34 2
    66   33   35 1
@<TRIPOS>MOLECULE
CHEMBL571091
   42    44     0     0     0
SMALL
USER_CHARGES

@<TRIPOS>ATOM
      1 C1         -0.0167    1.3781    0.0096 C.ar      1 <0>        -0.1206
      2 C2          1.1709    2.0855    0.0021 C.ar      1 <0>        -0.1165
      3 C3          2.3773    1.4107   -0.0130 C.ar      1 <0>        -0.1152
      4 C4          2.3960    0.0285   -0.0201 C.ar      1 <0>        -0.0821
      5 C5          1.2084   -0.6789   -0.0117 C.ar      1 <0>        -0.1160
      6 C6          0.0021   -0.0041    0.0020 C.ar      1 <0>        -0.1171
      7 C7          3.7112   -0.7071   -0.0376 C.3       1 <0>        -0.0446
      8 C8          4.1644   -0.9594    1.3773 C.ar      1 <0>        -0.0910
      9 C9          4.9522   -0.0267    2.0264 C.ar      1 <0>        -0.0726
     10 C10         5.3694   -0.2559    3.3232 C.ar      1 <0>        -0.1374
     11 C11         4.9969   -1.4228    3.9745 C.ar      1 <0>         0.1069
     12 C12         4.2060   -2.3568    3.3213 C.ar      1 <0>        -0.1982
     13 C13         3.7871   -2.1206    2.0262 C.ar      1 <0>        -0.0731
     14 O1          5.4064   -1.6507    5.2502 O.3       1 <0>        -0.3270
     15 C14         4.9849   -2.8733    5.8582 C.3       1 <0>         0.0336
     16 C15         5.5391   -2.9523    7.2821 C.3       1 <0>         0.0338
     17 H1          5.3112   -3.9224    7.7239 H         1 <0>         0.1602
     18 C16         7.0685   -2.7066    7.2799 C.3       1 <0>        -0.1386
     19 C17         7.3076   -2.2066    8.7289 C.3       1 <0>        -0.1428
     20 C18         6.0354   -1.3858    9.0278 C.3       1 <0>        -0.0078
     21 N1          4.9806   -1.8644    8.1129 N.4       1 <0>        -0.5150
     22 H2         -0.9591    1.9053    0.0259 H         1 <0>         0.1233
     23 H3          1.1563    3.1654    0.0076 H         1 <0>         0.1237
     24 H4          3.3051    1.9634   -0.0196 H         1 <0>         0.1209
     25 H5          1.2231   -1.7588   -0.0176 H         1 <0>         0.1198
     26 H6         -0.9258   -0.5567    0.0082 H         1 <0>         0.1231
     27 H7          3.5884   -1.6586   -0.5549 H         1 <0>         0.0857
     28 H8          4.4573   -0.1052   -0.5563 H         1 <0>         0.0867
     29 H9          5.2420    0.8815    1.5189 H         1 <0>         0.1348
     30 H10         5.9853    0.4726    3.8295 H         1 <0>         0.1324
     31 H11         3.9147   -3.2660    3.8262 H         1 <0>         0.1270
     32 H12         3.1678   -2.8454    1.5188 H         1 <0>         0.1298
     33 H13         3.8958   -2.9068    5.8898 H         1 <0>         0.0880
     34 H14         5.3576   -3.7160    5.2759 H         1 <0>         0.1098
     35 H15         7.6124   -3.6323    7.0916 H         1 <0>         0.1183
     36 H16         7.3400   -1.9412    6.5529 H         1 <0>         0.1100
     37 H17         7.3945   -3.0472    9.4173 H         1 <0>         0.1004
     38 H18         8.1943   -1.5744    8.7771 H         1 <0>         0.1145
     39 H19         5.7270   -1.5431   10.0614 H         1 <0>         0.1346
     40 H20         6.2275   -0.3272    8.8528 H         1 <0>         0.1335
     41 H21         4.6762   -1.1066    7.5202 H         1 <0>         0.4340
     42 H22         4.1979   -2.2121    8.6464 H         1 <0>         0.4310
@<TRIPOS>BOND
     1    1    6 ar
     2    1    2 ar
     3    1   22 1
     4    2    3 ar
     5    2   23 1
     6    3    4 ar
     7    3   24 1
     8    4    5 ar
     9    4    7 1
    10    5    6 ar
    11    5   25 1
    12    6   26 1
    13    7    8 1
    14    7   27 1
    15    7   28 1
    16    8   13 ar
    17    8    9 ar
    18    9   10 ar
    19    9   29 1
    20   10   11 ar
    21   10   30 1
    22   11   12 ar
    23   11   14 1
    24   12   13 ar
    25   12   31 1
    26   13   32 1
    27   14   15 1
    28   15   16 1
    29   15   33 1
    30   15   34 1
    31   16   17 1
    32   16   21 1
    33   16   18 1
    34   18   19 1
    35   18   35 1
    36   18   36 1
    37   19   20 1
    38   19   37 1
    39   19   38 1
    40   20   21 1
    41   20   39 1
    42   20   40 1
    43   21   41 1
    44   21   42 1
@<TRIPOS>MOLECULE
CHEMBL349672
   41    43     0     0     0
SMALL
USER_CHARGES

@<TRIPOS>ATOM
      1 C1         -0.0167    1.3784    0.0096 C.ar      1 <0>        -0.0695
      2 C2          1.1695    2.0865    0.0021 C.ar      1 <0>        -0.1389
      3 C3          2.3802    1.4093   -0.0131 C.ar      1 <0>         0.1103
      4 C4          2.3963    0.0221   -0.0206 C.ar      1 <0>        -0.1992
      5 C5          1.2074   -0.6814   -0.0130 C.ar      1 <0>        -0.0678
      6 C6          0.0021   -0.0041    0.0020 C.ar      1 <0>        -0.1012
      7 C7         -1.2934   -0.7740    0.0107 C.3       1 <0>         0.0104
      8 C8         -1.7392   -1.0230   -1.4071 C.2       1 <0>        -0.1974
      9 C9         -1.4666   -2.0670   -2.2311 C.2       1 <0>         0.0361
     10 N1         -1.9942   -2.0288   -3.4384 N.2       1 <0>        -0.5145
     11 C10        -2.7466   -1.0278   -3.8220 C.2       1 <0>         0.0308
     12 S1         -2.7790   -0.0306   -2.4665 S.3       1 <0>         0.1078
     13 O1          3.5484    2.1036   -0.0209 O.3       1 <0>        -0.3253
     14 C11         4.7565    1.3405   -0.0365 C.3       1 <0>         0.0280
     15 C12         5.9580    2.2878   -0.0434 C.3       1 <0>         0.0011
     16 N2          5.9923    3.0443    1.2153 N.4       1 <0>        -0.3911
     17 C13         4.8165    3.9374    1.2913 C.3       1 <0>        -0.0013
     18 C14         5.3362    5.2166    1.9935 C.3       1 <0>        -0.1457
     19 C15         6.7651    5.3403    1.4022 C.3       1 <0>        -0.1421
     20 C16         7.2129    3.8699    1.2649 C.3       1 <0>        -0.0135
     21 H1         -0.9594    1.9052    0.0259 H         1 <0>         0.1357
     22 H2          1.1543    3.1664    0.0076 H         1 <0>         0.1336
     23 H3          3.3375   -0.5074   -0.0328 H         1 <0>         0.1281
     24 H4          1.2194   -1.7613   -0.0189 H         1 <0>         0.1317
     25 H5         -1.1460   -1.7274    0.5180 H         1 <0>         0.1021
     26 H6         -2.0553   -0.1973    0.5352 H         1 <0>         0.0947
     27 H7         -0.8455   -2.8910   -1.9120 H         1 <0>         0.1696
     28 H8         -3.2322   -0.8803   -4.7753 H         1 <0>         0.2195
     29 H9          4.7979    0.7076    0.8500 H         1 <0>         0.0859
     30 H10         4.7806    0.7165   -0.9299 H         1 <0>         0.1086
     31 H11         6.8762    1.7093   -0.1448 H         1 <0>         0.1491
     32 H12         5.8702    2.9798   -0.8810 H         1 <0>         0.1403
     33 H13         4.4545    4.1741    0.2908 H         1 <0>         0.1374
     34 H14         4.0261    3.4746    1.8822 H         1 <0>         0.1341
     35 H15         4.7279    6.0816    1.7291 H         1 <0>         0.1162
     36 H16         5.3713    5.0818    3.0746 H         1 <0>         0.0969
     37 H17         6.7380    5.8275    0.4275 H         1 <0>         0.0985
     38 H18         7.4198    5.8803    2.0861 H         1 <0>         0.1125
     39 H19         7.8187    3.5849    2.1251 H         1 <0>         0.1326
     40 H20         7.7854    3.7409    0.3463 H         1 <0>         0.1317
     41 H21         5.9824    2.4058    1.9965 H         1 <0>         0.4245
@<TRIPOS>BOND
     1    1    6 ar
     2    1    2 ar
     3    1   21 1
     4    2    3 ar
     5    2   22 1
     6    3    4 ar
     7    3   13 1
     8    4    5 ar
     9    4   23 1
    10    5    6 ar
    11    5   24 1
    12    6    7 1
    13    7    8 1
    14    7   25 1
    15    7   26 1
    16    8   12 1
    17    8    9 2
    18    9   10 1
    19    9   27 1
    20   10   11 2
    21   11   12 1
    22   11   28 1
    23   13   14 1
    24   14   15 1
    25   14   29 1
    26   14   30 1
    27   15   16 1
    28   15   31 1
    29   15   32 1
    30   16   20 1
    31   16   17 1
    32   16   41 1
    33   17   18 1
    34   17   33 1
    35   17   34 1
    36   18   19 1
    37   18   35 1
    38   18   36 1
    39   19   20 1
    40   19   37 1
    41   19   38 1
    42   20   39 1
    43   20   40 1
@<TRIPOS>MOLECULE
CHEMBL162607
   42    44     0     0     0
SMALL
USER_CHARGES

@<TRIPOS>ATOM
      1 C1         -0.0167    1.3784    0.0096 C.ar      1 <0>        -0.0713
      2 C2          1.1695    2.0865    0.0021 C.ar      1 <0>        -0.1388
      3 C3          2.3802    1.4093   -0.0131 C.ar      1 <0>         0.1049
      4 C4          2.3963    0.0221   -0.0206 C.ar      1 <0>        -0.1985
      5 C5          1.2074   -0.6814   -0.0130 C.ar      1 <0>        -0.0749
      6 C6          0.0021   -0.0041    0.0020 C.ar      1 <0>        -0.0918
      7 C7         -1.2934   -0.7740    0.0107 C.3       1 <0>        -0.0126
      8 C8         -1.7392   -1.0230   -1.4071 C.2       1 <0>        -0.1788
      9 C9         -2.5639   -0.1835   -2.1908 C.2       1 <0>        -0.2107
     10 C10        -2.7076   -0.7839   -3.3859 C.2       1 <0>        -0.0346
     11 O1         -2.0176   -1.9361   -3.3677 O.3       1 <0>        -0.1749
     12 C11        -1.4242   -2.0838   -2.1719 C.2       1 <0>        -0.0360
     13 O2          3.5484    2.1036   -0.0209 O.3       1 <0>        -0.3260
     14 C12         4.7565    1.3405   -0.0365 C.3       1 <0>         0.0284
     15 C13         5.9580    2.2878   -0.0434 C.3       1 <0>         0.0012
     16 N1          5.9923    3.0443    1.2153 N.4       1 <0>        -0.3910
     17 C14         4.8165    3.9374    1.2913 C.3       1 <0>        -0.0011
     18 C15         5.3362    5.2166    1.9935 C.3       1 <0>        -0.1458
     19 C16         6.7651    5.3403    1.4022 C.3       1 <0>        -0.1420
     20 C17         7.2129    3.8699    1.2649 C.3       1 <0>        -0.0135
     21 H1         -0.9594    1.9052    0.0259 H         1 <0>         0.1342
     22 H2          1.1543    3.1664    0.0076 H         1 <0>         0.1317
     23 H3          3.3375   -0.5074   -0.0328 H         1 <0>         0.1265
     24 H4          1.2194   -1.7613   -0.0189 H         1 <0>         0.1290
     25 H5         -1.1460   -1.7274    0.5180 H         1 <0>         0.0839
     26 H6         -2.0553   -0.1973    0.5352 H         1 <0>         0.0863
     27 H7         -2.9960    0.7588   -1.8878 H         1 <0>         0.1477
     28 H8         -3.2809   -0.4042   -4.2186 H         1 <0>         0.2036
     29 H9         -0.8018   -2.9146   -1.8741 H         1 <0>         0.1990
     30 H10         4.7979    0.7076    0.8500 H         1 <0>         0.0851
     31 H11         4.7806    0.7165   -0.9299 H         1 <0>         0.1081
     32 H12         6.8762    1.7093   -0.1448 H         1 <0>         0.1487
     33 H13         5.8702    2.9798   -0.8810 H         1 <0>         0.1401
     34 H14         4.4545    4.1741    0.2908 H         1 <0>         0.1374
     35 H15         4.0261    3.4746    1.8822 H         1 <0>         0.1341
     36 H16         4.7279    6.0816    1.7291 H         1 <0>         0.1161
     37 H17         5.3713    5.0818    3.0746 H         1 <0>         0.0969
     38 H18         6.7380    5.8275    0.4275 H         1 <0>         0.0985
     39 H19         7.4198    5.8803    2.0861 H         1 <0>         0.1124
     40 H20         7.8187    3.5849    2.1251 H         1 <0>         0.1325
     41 H21         7.7854    3.7409    0.3463 H         1 <0>         0.1316
     42 H22         5.9824    2.4058    1.9965 H         1 <0>         0.4244
@<TRIPOS>BOND
     1    1    6 ar
     2    1    2 ar
     3    1   21 1
     4    2    3 ar
     5    2   22 1
     6    3    4 ar
     7    3   13 1
     8    4    5 ar
     9    4   23 1
    10    5    6 ar
    11    5   24 1
    12    6    7 1
    13    7    8 1
    14    7   25 1
    15    7   26 1
    16    8   12 2
    17    8    9 1
    18    9   10 2
    19    9   27 1
    20   10   11 1
    21   10   28 1
    22   11   12 1
    23   12   29 1
    24   13   14 1
    25   14   15 1
    26   14   30 1
    27   14   31 1
    28   15   16 1
    29   15   32 1
    30   15   33 1
    31   16   20 1
    32   16   17 1
    33   16   42 1
    34   17   18 1
    35   17   34 1
    36   17   35 1
    37   18   19 1
    38   18   36 1
    39   18   37 1
    40   19   20 1
    41   19   38 1
    42   19   39 1
    43   20   40 1
    44   20   41 1
@<TRIPOS>MOLECULE
CHEMBL479956
   59    63     0     0     0
SMALL
USER_CHARGES

@<TRIPOS>ATOM
      1 C1         -1.4028   -0.2219    2.5216 C.ar      1 <0>        -0.1094
      2 C2         -0.2296    0.3781    2.9287 C.ar      1 <0>        -0.0849
      3 C3          0.9269   -0.3904    3.0836 C.ar      1 <0>        -0.0887
      4 C4          0.8856   -1.7627    2.8244 C.ar      1 <0>        -0.0850
      5 C5         -0.2948   -2.3491    2.4179 C.ar      1 <0>        -0.1087
      6 C6         -1.4363   -1.5816    2.2666 C.ar      1 <0>        -0.1837
      7 C7         -2.7222   -2.2298    1.8225 C.3       1 <0>         0.0540
      8 N1         -2.8043   -2.2008    0.3561 N.4       1 <0>        -0.3861
      9 C8         -2.9147   -0.8016   -0.1085 C.3       1 <0>        -0.0072
     10 C9         -3.8632   -0.8645   -1.3315 C.3       1 <0>        -0.1632
     11 C10        -4.8775   -1.9505   -0.8860 C.3       1 <0>         0.1443
     12 C11        -4.0007   -2.9389   -0.0886 C.3       1 <0>        -0.0191
     13 N2         -5.4746   -2.6103   -2.0497 N.pl3     1 <0>        -0.7419
     14 C12        -6.6051   -2.0592   -2.6628 C.ar      1 <0>         0.1741
     15 C13        -7.1581   -0.8837   -2.1719 C.ar      1 <0>        -0.1532
     16 C14        -8.2736   -0.3401   -2.7778 C.ar      1 <0>        -0.1462
     17 C15        -8.8419   -0.9680   -3.8766 C.ar      1 <0>         0.0812
     18 C16        -8.2903   -2.1426   -4.3673 C.ar      1 <0>        -0.0949
     19 C17        -7.1714   -2.6844   -3.7660 C.ar      1 <0>        -0.1436
     20 O1         -9.9403   -0.4322   -4.4727 O.3       1 <0>        -0.2593
     21 C18       -10.4420    0.7229   -3.9643 C.ar      1 <0>         0.1034
     22 C19        -9.9886    1.9454   -4.4438 C.ar      1 <0>        -0.1264
     23 C20       -10.4948    3.1196   -3.9302 C.ar      1 <0>        -0.0562
     24 C21       -11.4652    3.0796   -2.9268 C.ar      1 <0>        -0.0141
     25 C22       -11.9187    1.8488   -2.4478 C.ar      1 <0>        -0.0750
     26 C23       -11.4113    0.6789   -2.9701 C.ar      1 <0>        -0.1264
     27 C24       -12.0102    4.3362   -2.3731 C.2       1 <0>         0.2245
     28 N3        -11.6692    5.5485   -2.7432 N.2       1 <0>        -0.4672
     29 C25       -12.3740    6.4321   -2.0196 C.2       1 <0>        -0.0378
     30 C26       -13.1682    5.7400   -1.1835 C.2       1 <0>        -0.0645
     31 O2        -12.9430    4.4301   -1.4095 O.3       1 <0>        -0.1968
     32 C27         2.1858    0.2442    3.5184 C.2       1 <0>         0.5087
     33 O3          2.2188    1.4457    3.7440 O.co2     1 <0>        -0.6721
     34 O4          3.1964   -0.4312    3.6530 O.co2     1 <0>        -0.6720
     35 H1         -2.2987    0.3701    2.4057 H         1 <0>         0.1203
     36 H2         -0.2049    1.4395    3.1270 H         1 <0>         0.1384
     37 H3          1.7758   -2.3628    2.9418 H         1 <0>         0.1384
     38 H4         -0.3281   -3.4097    2.2169 H         1 <0>         0.1217
     39 H5         -2.7460   -3.2636    2.1673 H         1 <0>         0.1311
     40 H6         -3.5677   -1.6865    2.2445 H         1 <0>         0.1303
     41 H7         -3.3444   -0.1750    0.6731 H         1 <0>         0.1336
     42 H8         -1.9370   -0.4221   -0.4056 H         1 <0>         0.1378
     43 H9         -4.3603    0.0926   -1.4898 H         1 <0>         0.1165
     44 H10        -3.3256   -1.1762   -2.2270 H         1 <0>         0.1018
     45 H11        -5.6490   -1.5189   -0.2483 H         1 <0>         0.1132
     46 H12        -3.7064   -3.7719   -0.7271 H         1 <0>         0.1326
     47 H13        -4.5513   -3.3085    0.7765 H         1 <0>         0.1397
     48 H14        -5.0862   -3.4292   -2.3953 H         1 <0>         0.4048
     49 H15        -6.7160   -0.3950   -1.3163 H         1 <0>         0.1233
     50 H16        -8.7040    0.5739   -2.3959 H         1 <0>         0.1302
     51 H17        -8.7335   -2.6311   -5.2226 H         1 <0>         0.1373
     52 H18        -6.7395   -3.5964   -4.1508 H         1 <0>         0.1320
     53 H19        -9.2381    1.9755   -5.2199 H         1 <0>         0.1423
     54 H20       -10.1413    4.0696   -4.3030 H         1 <0>         0.1480
     55 H21       -12.6688    1.8138   -1.6715 H         1 <0>         0.1405
     56 H22       -11.7648   -0.2734   -2.6033 H         1 <0>         0.1408
     57 H23       -12.3138    7.5078   -2.0950 H         1 <0>         0.1901
     58 H24       -13.8605    6.1563   -0.4667 H         1 <0>         0.2213
     59 H25        -1.9779   -2.6236   -0.0394 H         1 <0>         0.4275
@<TRIPOS>BOND
     1    1    6 ar
     2    1    2 ar
     3    1   35 1
     4    2    3 ar
     5    2   36 1
     6    3    4 ar
     7    3   32 1
     8    4    5 ar
     9    4   37 1
    10    5    6 ar
    11    5   38 1
    12    6    7 1
    13    7    8 1
    14    7   39 1
    15    7   40 1
    16    8   12 1
    17    8    9 1
    18    8   59 1
    19    9   10 1
    20    9   41 1
    21    9   42 1
    22   10   11 1
    23   10   43 1
    24   10   44 1
    25   11   12 1
    26   11   13 1
    27   11   45 1
    28   12   46 1
    29   12   47 1
    30   13   14 1
    31   13   48 1
    32   14   19 ar
    33   14   15 ar
    34   15   16 ar
    35   15   49 1
    36   16   17 ar
    37   16   50 1
    38   17   18 ar
    39   17   20 1
    40   18   19 ar
    41   18   51 1
    42   19   52 1
    43   20   21 1
    44   21   26 ar
    45   21   22 ar
    46   22   23 ar
    47   22   53 1
    48   23   24 ar
    49   23   54 1
    50   24   25 ar
    51   24   27 1
    52   25   26 ar
    53   25   55 1
    54   26   56 1
    55   27   31 1
    56   27   28 2
    57   28   29 1
    58   29   30 2
    59   29   57 1
    60   30   31 1
    61   30   58 1
    62   32   33 2
    63   32   34 1
@<TRIPOS>MOLECULE
CHEMBL479956__1
   59    63     0     0     0
SMALL
USER_CHARGES

@<TRIPOS>ATOM
      1 C1         -1.2785    4.1214   -0.7001 C.ar      1 <0>        -0.1093
      2 C2         -0.3632    5.1467   -0.8151 C.ar      1 <0>        -0.0853
      3 C3          1.0028    4.8570   -0.8631 C.ar      1 <0>        -0.0887
      4 C4          1.4313    3.5289   -0.7940 C.ar      1 <0>        -0.0851
      5 C5          0.5045    2.5140   -0.6791 C.ar      1 <0>        -0.1086
      6 C6         -0.8468    2.8084   -0.6323 C.ar      1 <0>        -0.1833
      7 C7         -1.8532    1.6938   -0.5062 C.3       1 <0>         0.0586
      8 N1         -2.2490    1.2377   -1.8453 N.4       1 <0>        -0.3920
      9 C8         -3.0728    2.2712   -2.5238 C.3       1 <0>        -0.0022
     10 C9         -3.8608    1.4951   -3.6009 C.3       1 <0>        -0.1684
     11 C10        -3.9109    0.0403   -3.0906 C.3       1 <0>         0.1399
     12 C11        -3.1489    0.0596   -1.7481 C.3       1 <0>        -0.0115
     13 N2         -5.2992   -0.3782   -2.8817 N.pl3     1 <0>        -0.7427
     14 C12        -6.0374   -0.9089   -3.9452 C.ar      1 <0>         0.1732
     15 C13        -5.4526   -1.0445   -5.1974 C.ar      1 <0>        -0.1526
     16 C14        -6.1818   -1.5689   -6.2465 C.ar      1 <0>        -0.1463
     17 C15        -7.4981   -1.9602   -6.0496 C.ar      1 <0>         0.0813
     18 C16        -8.0832   -1.8246   -4.7990 C.ar      1 <0>        -0.0951
     19 C17        -7.3535   -1.3057   -3.7476 C.ar      1 <0>        -0.1435
     20 O1         -8.2154   -2.4764   -7.0830 O.3       1 <0>        -0.2593
     21 C18        -7.6005   -2.5987   -8.2876 C.ar      1 <0>         0.1034
     22 C19        -6.9212   -3.7688   -8.6032 C.ar      1 <0>        -0.1266
     23 C20        -6.2956   -3.8965   -9.8243 C.ar      1 <0>        -0.0564
     24 C21        -6.3454   -2.8481  -10.7453 C.ar      1 <0>        -0.0142
     25 C22        -7.0295   -1.6737  -10.4247 C.ar      1 <0>        -0.0747
     26 C23        -7.6571   -1.5556   -9.2035 C.ar      1 <0>        -0.1262
     27 C24        -5.6756   -2.9807  -12.0555 C.2       1 <0>         0.2245
     28 N3         -5.0091   -4.0318  -12.4727 N.2       1 <0>        -0.4676
     29 C25        -4.5463   -3.7837  -13.7078 C.2       1 <0>        -0.0383
     30 C26        -4.9412   -2.5458  -14.0551 C.2       1 <0>        -0.0641
     31 O2         -5.6512   -2.0475  -13.0229 O.3       1 <0>        -0.1965
     32 C27         1.9880    5.9482   -0.9866 C.2       1 <0>         0.5088
     33 O3          1.6098    7.1096   -1.0472 O.co2     1 <0>        -0.6722
     34 O4          3.1829    5.6914   -1.0283 O.co2     1 <0>        -0.6719
     35 H1         -2.3345    4.3442   -0.6584 H         1 <0>         0.1201
     36 H2         -0.7015    6.1710   -0.8683 H         1 <0>         0.1382
     37 H3          2.4856    3.2977   -0.8309 H         1 <0>         0.1385
     38 H4          0.8342    1.4869   -0.6260 H         1 <0>         0.1219
     39 H5         -1.4093    0.8640    0.0438 H         1 <0>         0.1311
     40 H6         -2.7312    2.0558    0.0286 H         1 <0>         0.1290
     41 H7         -3.7567    2.7379   -1.8149 H         1 <0>         0.1307
     42 H8         -2.4337    3.0224   -2.9878 H         1 <0>         0.1371
     43 H9         -4.8692    1.8979   -3.6960 H         1 <0>         0.1164
     44 H10        -3.3413    1.5430   -4.5580 H         1 <0>         0.1023
     45 H11        -3.4160   -0.6260   -3.7972 H         1 <0>         0.1125
     46 H12        -2.5671   -0.8543   -1.6279 H         1 <0>         0.1408
     47 H13        -3.8447    0.1803   -0.9178 H         1 <0>         0.1348
     48 H14        -5.7066   -0.2873   -2.0061 H         1 <0>         0.4046
     49 H15        -4.4280   -0.7396   -5.3510 H         1 <0>         0.1233
     50 H16        -5.7272   -1.6740   -7.2205 H         1 <0>         0.1301
     51 H17        -9.1081   -2.1291   -4.6465 H         1 <0>         0.1372
     52 H18        -7.8077   -1.2043   -2.7730 H         1 <0>         0.1320
     53 H19        -6.8832   -4.5792   -7.8903 H         1 <0>         0.1421
     54 H20        -5.7672   -4.8062  -10.0686 H         1 <0>         0.1478
     55 H21        -7.0699   -0.8605  -11.1342 H         1 <0>         0.1407
     56 H22        -8.1901   -0.6493   -8.9565 H         1 <0>         0.1410
     57 H23        -3.9605   -4.4580  -14.3148 H         1 <0>         0.1900
     58 H24        -4.7317   -2.0452  -14.9888 H         1 <0>         0.2214
     59 H25        -1.4344    1.0148   -2.3974 H         1 <0>         0.4292
@<TRIPOS>BOND
     1    1    6 ar
     2    1    2 ar
     3    1   35 1
     4    2    3 ar
     5    2   36 1
     6    3    4 ar
     7    3   32 1
     8    4    5 ar
     9    4   37 1
    10    5    6 ar
    11    5   38 1
    12    6    7 1
    13    7    8 1
    14    7   39 1
    15    7   40 1
    16    8   12 1
    17    8    9 1
    18    8   59 1
    19    9   10 1
    20    9   41 1
    21    9   42 1
    22   10   11 1
    23   10   43 1
    24   10   44 1
    25   11   12 1
    26   11   13 1
    27   11   45 1
    28   12   46 1
    29   12   47 1
    30   13   14 1
    31   13   48 1
    32   14   19 ar
    33   14   15 ar
    34   15   16 ar
    35   15   49 1
    36   16   17 ar
    37   16   50 1
    38   17   18 ar
    39   17   20 1
    40   18   19 ar
    41   18   51 1
    42   19   52 1
    43   20   21 1
    44   21   26 ar
    45   21   22 ar
    46   22   23 ar
    47   22   53 1
    48   23   24 ar
    49   23   54 1
    50   24   25 ar
    51   24   27 1
    52   25   26 ar
    53   25   55 1
    54   26   56 1
    55   27   31 1
    56   27   28 2
    57   28   29 1
    58   29   30 2
    59   29   57 1
    60   30   31 1
    61   30   58 1
    62   32   33 2
    63   32   34 1
@<TRIPOS>MOLECULE
CHEMBL273570
   45    48     0     0     0
SMALL
USER_CHARGES

@<TRIPOS>ATOM
      1 C1         -0.0167    1.3781    0.0096 C.ar      1 <0>        -0.1236
      2 C2          1.1709    2.0855    0.0021 C.ar      1 <0>        -0.1175
      3 C3          2.3773    1.4107   -0.0130 C.ar      1 <0>        -0.1152
      4 C4          2.3960    0.0285   -0.0201 C.ar      1 <0>        -0.0777
      5 C5          1.2084   -0.6789   -0.0117 C.ar      1 <0>        -0.1157
      6 C6          0.0021   -0.0041    0.0020 C.ar      1 <0>        -0.1178
      7 C7          3.7112   -0.7071   -0.0376 C.3       1 <0>        -0.0399
      8 C8          4.1644   -0.9594    1.3773 C.ar      1 <0>        -0.1077
      9 C9          4.9522   -0.0267    2.0264 C.ar      1 <0>        -0.0734
     10 C10         5.3694   -0.2559    3.3232 C.ar      1 <0>        -0.1438
     11 C11         4.9969   -1.4228    3.9745 C.ar      1 <0>         0.1236
     12 C12         4.2060   -2.3568    3.3213 C.ar      1 <0>        -0.2027
     13 C13         3.7871   -2.1206    2.0262 C.ar      1 <0>        -0.0728
     14 O1          5.4064   -1.6507    5.2502 O.3       1 <0>        -0.3108
     15 C14         4.9849   -2.8733    5.8582 C.3       1 <0>         0.0427
     16 C15         5.5391   -2.9523    7.2821 C.3       1 <0>         0.1130
     17 N1          5.1069   -4.2057    7.9054 N.pl3     1 <0>        -0.4864
     18 C16         4.0169   -4.3770    8.6995 C.2       1 <0>         0.3018
     19 N2          3.9305   -5.6182    9.0820 N.2       1 <0>        -0.4749
     20 C17         4.9607   -6.3313    8.5591 C.ar      1 <0>         0.2598
     21 C18         5.7267   -5.4313    7.7908 C.ar      1 <0>         0.0165
     22 C19         6.8571   -5.8875    7.1235 C.ar      1 <0>        -0.0547
     23 C20         7.1907   -7.2240    7.2368 C.ar      1 <0>        -0.1115
     24 C21         6.3888   -8.0674    8.0113 C.ar      1 <0>         0.2169
     25 N3          5.3199   -7.6063    8.6445 N.ar      1 <0>        -0.4072
     26 C22         6.7331   -9.4524    8.1291 C.1       1 <0>         0.2661
     27 N4          7.0063  -10.5511    8.2226 N.1       1 <0>        -0.3774
     28 H1         -0.9591    1.9053    0.0259 H         1 <0>         0.1213
     29 H2          1.1563    3.1654    0.0076 H         1 <0>         0.1220
     30 H3          3.3051    1.9634   -0.0196 H         1 <0>         0.1207
     31 H4          1.2231   -1.7588   -0.0176 H         1 <0>         0.1197
     32 H5         -0.9258   -0.5567    0.0082 H         1 <0>         0.1216
     33 H6          3.5884   -1.6586   -0.5549 H         1 <0>         0.0823
     34 H7          4.4573   -0.1052   -0.5563 H         1 <0>         0.0834
     35 H8          5.2420    0.8815    1.5189 H         1 <0>         0.1304
     36 H9          5.9853    0.4726    3.8295 H         1 <0>         0.1326
     37 H10         3.9147   -3.2660    3.8262 H         1 <0>         0.1257
     38 H11         3.1678   -2.8454    1.5188 H         1 <0>         0.1250
     39 H12         3.8958   -2.9068    5.8898 H         1 <0>         0.0729
     40 H13         5.3576   -3.7160    5.2759 H         1 <0>         0.0703
     41 H14         6.6281   -2.9189    7.2505 H         1 <0>         0.1077
     42 H15         5.1664   -2.1096    7.8643 H         1 <0>         0.1171
     43 H16         3.3231   -3.5960    8.9737 H         1 <0>         0.2299
     44 H17         7.4595   -5.2147    6.5312 H         1 <0>         0.1486
     45 H18         8.0623   -7.6130    6.7315 H         1 <0>         0.1588
@<TRIPOS>BOND
     1    1    6 ar
     2    1    2 ar
     3    1   28 1
     4    2    3 ar
     5    2   29 1
     6    3    4 ar
     7    3   30 1
     8    4    5 ar
     9    4    7 1
    10    5    6 ar
    11    5   31 1
    12    6   32 1
    13    7    8 1
    14    7   33 1
    15    7   34 1
    16    8   13 ar
    17    8    9 ar
    18    9   10 ar
    19    9   35 1
    20   10   11 ar
    21   10   36 1
    22   11   12 ar
    23   11   14 1
    24   12   13 ar
    25   12   37 1
    26   13   38 1
    27   14   15 1
    28   15   16 1
    29   15   39 1
    30   15   40 1
    31   16   17 1
    32   16   41 1
    33   16   42 1
    34   17   21 1
    35   17   18 1
    36   18   19 2
    37   18   43 1
    38   19   20 1
    39   20   25 ar
    40   20   21 ar
    41   21   22 ar
    42   22   23 ar
    43   22   44 1
    44   23   24 ar
    45   23   45 1
    46   24   25 ar
    47   24   26 1
    48   26   27 3
@<TRIPOS>MOLECULE
CHEMBL481862
   46    49     0     0     0
SMALL
USER_CHARGES

@<TRIPOS>ATOM
      1 C1          0.1977   -1.9266   -4.6238 C.ar      1 <0>        -0.1002
      2 C2          1.4114   -1.6291   -5.2262 C.ar      1 <0>        -0.1169
      3 C3          2.5908   -1.7747   -4.5312 C.ar      1 <0>        -0.0717
      4 C4          2.5658   -2.2252   -3.2089 C.ar      1 <0>         0.0671
      5 C5          1.3341   -2.5246   -2.6036 C.ar      1 <0>         0.0510
      6 C6          0.1558   -2.3724   -3.3192 C.ar      1 <0>        -0.1041
      7 N1          1.6293   -2.9383   -1.3160 N.pl3     1 <0>        -0.5852
      8 H1          0.9910   -3.2161   -0.6405 H         1 <0>         0.4296
      9 C7          2.9849   -2.8828   -1.1737 C.2       1 <0>         0.4559
     10 N2          3.5330   -2.4643   -2.2848 N.2       1 <0>        -0.5192
     11 O1          3.6620   -3.2119   -0.0497 O.3       1 <0>        -0.2338
     12 C8          5.0209   -3.2007   -0.0966 C.ar      1 <0>         0.0770
     13 C9          5.7065   -1.9955   -0.0543 C.ar      1 <0>        -0.0621
     14 C10         7.0868   -1.9842   -0.1020 C.ar      1 <0>        -0.1280
     15 C11         7.7874   -3.1779   -0.1923 C.ar      1 <0>         0.1222
     16 C12         7.1019   -4.3830   -0.2351 C.ar      1 <0>        -0.1899
     17 C13         5.7218   -4.3947   -0.1812 C.ar      1 <0>        -0.0675
     18 O2          9.1463   -3.1666   -0.2393 O.3       1 <0>        -0.3222
     19 C14         9.8027   -4.4326   -0.3320 C.3       1 <0>         0.0260
     20 C15        11.3173   -4.2199   -0.3734 C.3       1 <0>         0.0012
     21 N3         11.7656   -3.6421    0.9006 N.4       1 <0>        -0.3915
     22 C16        11.2045   -2.2831    1.0554 C.3       1 <0>        -0.0023
     23 C17        12.3191   -1.4731    1.7633 C.3       1 <0>        -0.1457
     24 C18        13.5970   -2.0588    1.1069 C.3       1 <0>        -0.1422
     25 C19        13.2369   -3.5466    0.9117 C.3       1 <0>        -0.0133
     26 H2         -0.7208   -1.8041   -5.1786 H         1 <0>         0.1357
     27 H3          1.4312   -1.2808   -6.2483 H         1 <0>         0.1343
     28 H4          3.5321   -1.5419   -5.0066 H         1 <0>         0.1309
     29 H5         -0.7922   -2.6027   -2.8561 H         1 <0>         0.1277
     30 H6          5.1609   -1.0660    0.0157 H         1 <0>         0.1428
     31 H7          7.6205   -1.0458   -0.0694 H         1 <0>         0.1421
     32 H8          7.6475   -5.3123   -0.3062 H         1 <0>         0.1370
     33 H9          5.1883   -5.3333   -0.2093 H         1 <0>         0.1400
     34 H10         9.5446   -5.0401    0.5354 H         1 <0>         0.0876
     35 H11         9.4824   -4.9422   -1.2408 H         1 <0>         0.1111
     36 H12        11.8143   -5.1767   -0.5333 H         1 <0>         0.1498
     37 H13        11.5666   -3.5403   -1.1883 H         1 <0>         0.1412
     38 H14        10.9826   -1.8508    0.0797 H         1 <0>         0.1381
     39 H15        10.3061   -2.3114    1.6720 H         1 <0>         0.1344
     40 H16        12.2235   -0.4084    1.5500 H         1 <0>         0.1164
     41 H17        12.3128   -1.6566    2.8377 H         1 <0>         0.0969
     42 H18        13.7913   -1.5802    0.1471 H         1 <0>         0.0987
     43 H19        14.4544   -1.9538    1.7717 H         1 <0>         0.1123
     44 H20        13.6406   -4.1369    1.7344 H         1 <0>         0.1325
     45 H21        13.6388   -3.9042   -0.0363 H         1 <0>         0.1319
     46 H22        11.4573   -4.2238    1.6653 H         1 <0>         0.4246
@<TRIPOS>BOND
     1    1    6 ar
     2    1    2 ar
     3    1   26 1
     4    2    3 ar
     5    2   27 1
     6    3    4 ar
     7    3   28 1
     8    4   10 1
     9    4    5 ar
    10    5    6 ar
    11    5    7 1
    12    6   29 1
    13    7    8 1
    14    7    9 1
    15    9   10 2
    16    9   11 1
    17   11   12 1
    18   12   17 ar
    19   12   13 ar
    20   13   14 ar
    21   13   30 1
    22   14   15 ar
    23   14   31 1
    24   15   16 ar
    25   15   18 1
    26   16   17 ar
    27   16   32 1
    28   17   33 1
    29   18   19 1
    30   19   20 1
    31   19   34 1
    32   19   35 1
    33   20   21 1
    34   20   36 1
    35   20   37 1
    36   21   25 1
    37   21   22 1
    38   21   46 1
    39   22   23 1
    40   22   38 1
    41   22   39 1
    42   23   24 1
    43   23   40 1
    44   23   41 1
    45   24   25 1
    46   24   42 1
    47   24   43 1
    48   25   44 1
    49   25   45 1
@<TRIPOS>MOLECULE
CHEMBL519127
   45    48     0     0     0
SMALL
USER_CHARGES

@<TRIPOS>ATOM
      1 C1         -0.7778   -1.5654   -4.1912 C.ar      1 <0>        -0.1026
      2 C2          0.2226   -1.4888   -5.1496 C.ar      1 <0>        -0.0922
      3 C3          1.4993   -1.9138   -4.8311 C.ar      1 <0>        -0.0638
      4 C4          1.7567   -2.4036   -3.5750 C.ar      1 <0>        -0.1377
      5 C5          0.7633   -2.4964   -2.5739 C.ar      1 <0>         0.0984
      6 C6         -0.5300   -2.0530   -2.9348 C.ar      1 <0>        -0.0617
      7 N1          1.1722   -3.0001   -1.3889 N.2       1 <0>        -0.5090
      8 C7          2.4089   -3.3807   -1.1732 C.2       1 <0>         0.3339
      9 S1          3.1914   -3.0421   -2.7440 S.3       1 <0>        -0.0374
     10 O1          2.9538   -3.8976   -0.0477 O.3       1 <0>        -0.1851
     11 C8          4.2485   -4.3101   -0.0964 C.ar      1 <0>         0.0389
     12 C9          5.2753   -3.3781   -0.0586 C.ar      1 <0>        -0.0723
     13 C10         6.5904   -3.7971   -0.1081 C.ar      1 <0>        -0.1256
     14 C11         6.8845   -5.1498   -0.1957 C.ar      1 <0>         0.1325
     15 C12         5.8579   -6.0818   -0.2339 C.ar      1 <0>        -0.1899
     16 C13         4.5428   -5.6633   -0.1781 C.ar      1 <0>        -0.0587
     17 O2          8.1793   -5.5622   -0.2444 O.3       1 <0>        -0.3231
     18 C14         8.4088   -6.9698   -0.3341 C.3       1 <0>         0.0238
     19 C15         9.9143   -7.2392   -0.3780 C.3       1 <0>         0.0038
     20 N2         10.5229   -6.8264    0.8936 N.4       1 <0>        -0.3964
     21 C16        10.0803   -7.7264    1.9893 C.3       1 <0>        -0.0110
     22 C17        11.1817   -7.5450    3.0638 C.3       1 <0>        -0.1448
     23 C18        12.4701   -7.4142    2.2196 C.3       1 <0>        -0.1452
     24 C19        11.9935   -6.9680    0.8249 C.3       1 <0>        -0.0086
     25 H1         -1.7735   -1.2289   -4.4398 H         1 <0>         0.1405
     26 H2          0.0063   -1.1016   -6.1343 H         1 <0>         0.1439
     27 H3          2.2888   -1.8610   -5.5661 H         1 <0>         0.1364
     28 H4         -1.3313   -2.0987   -2.2121 H         1 <0>         0.1383
     29 H5          5.0463   -2.3248    0.0092 H         1 <0>         0.1498
     30 H6          7.3898   -3.0714   -0.0791 H         1 <0>         0.1476
     31 H7          6.0870   -7.1349   -0.3027 H         1 <0>         0.1417
     32 H8          3.7436   -6.3892   -0.2027 H         1 <0>         0.1476
     33 H9          7.9764   -7.4646    0.5356 H         1 <0>         0.0888
     34 H10         7.9438   -7.3567   -1.2408 H         1 <0>         0.1119
     35 H11        10.0884   -8.3036   -0.5356 H         1 <0>         0.1504
     36 H12        10.3610   -6.6731   -1.1953 H         1 <0>         0.1426
     37 H13         9.1104   -7.4135    2.3759 H         1 <0>         0.1335
     38 H14        10.0437   -8.7605    1.6467 H         1 <0>         0.1354
     39 H15        11.0079   -6.6395    3.6452 H         1 <0>         0.0986
     40 H16        11.2336   -8.4182    3.7141 H         1 <0>         0.1177
     41 H17        13.1310   -6.6629    2.6518 H         1 <0>         0.1059
     42 H18        12.9797   -8.3756    2.1556 H         1 <0>         0.1047
     43 H19        12.2598   -7.7210    0.0830 H         1 <0>         0.1318
     44 H20        12.4470   -6.0112    0.5660 H         1 <0>         0.1334
     45 H21        10.2748   -5.8715    1.1048 H         1 <0>         0.4335
@<TRIPOS>BOND
     1    1    6 ar
     2    1    2 ar
     3    1   25 1
     4    2    3 ar
     5    2   26 1
     6    3    4 ar
     7    3   27 1
     8    4    9 1
     9    4    5 ar
    10    5    6 ar
    11    5    7 1
    12    6   28 1
    13    7    8 2
    14    8    9 1
    15    8   10 1
    16   10   11 1
    17   11   16 ar
    18   11   12 ar
    19   12   13 ar
    20   12   29 1
    21   13   14 ar
    22   13   30 1
    23   14   15 ar
    24   14   17 1
    25   15   16 ar
    26   15   31 1
    27   16   32 1
    28   17   18 1
    29   18   19 1
    30   18   33 1
    31   18   34 1
    32   19   20 1
    33   19   35 1
    34   19   36 1
    35   20   24 1
    36   20   21 1
    37   20   45 1
    38   21   22 1
    39   21   37 1
    40   21   38 1
    41   22   23 1
    42   22   39 1
    43   22   40 1
    44   23   24 1
    45   23   41 1
    46   23   42 1
    47   24   43 1
    48   24   44 1
@<TRIPOS>MOLECULE
CHEMBL71535
   52    54     0     0     0
SMALL
USER_CHARGES

@<TRIPOS>ATOM
      1 C1         -0.0167    1.3781    0.0096 C.ar      1 <0>        -0.1082
      2 C2          1.1709    2.0855    0.0021 C.ar      1 <0>        -0.1227
      3 C3          2.3773    1.4107   -0.0130 C.ar      1 <0>        -0.0950
      4 C4          2.3960    0.0285   -0.0201 C.ar      1 <0>        -0.0999
      5 C5          1.2084   -0.6789   -0.0117 C.ar      1 <0>        -0.0953
      6 C6          0.0021   -0.0041    0.0020 C.ar      1 <0>        -0.1229
      7 C7          3.7112   -0.7071   -0.0376 C.3       1 <0>         0.1023
      8 O1          4.1410   -0.9464    1.3041 O.3       1 <0>        -0.3076
      9 C8          5.3186   -1.6049    1.4665 C.ar      1 <0>         0.1336
     10 C9          6.0483   -2.0075    0.3574 C.ar      1 <0>        -0.2056
     11 C10         7.2453   -2.6763    0.5252 C.ar      1 <0>        -0.0779
     12 C11         7.7160   -2.9451    1.7972 C.ar      1 <0>        -0.1272
     13 C12         6.9904   -2.5454    2.9042 C.ar      1 <0>        -0.0673
     14 C13         5.7959   -1.8708    2.7418 C.ar      1 <0>        -0.1465
     15 C14         9.0219   -3.6754    1.9773 C.3       1 <0>        -0.1062
     16 C15        10.1673   -2.6632    2.0441 C.3       1 <0>         0.0749
     17 H1          9.9641   -1.9359    2.8301 H         1 <0>         0.1261
     18 C16        11.4565   -3.3826    2.3466 C.2       1 <0>         0.3777
     19 O2         12.2708   -3.5563    1.4716 O.2       1 <0>        -0.3684
     20 C17        11.7266   -3.8799    3.7256 C.2       1 <0>         0.4253
     21 O3         10.9090   -3.7056    4.6040 O.2       1 <0>        -0.4666
     22 O4         12.8780   -4.5225    3.9957 O.3       1 <0>        -0.3239
     23 C18        13.0706   -4.9717    5.3385 C.3       1 <0>         0.1035
     24 C19        14.4049   -5.6633    5.4503 C.ar      1 <0>        -0.1029
     25 C20        14.4998   -7.0233    5.2211 C.ar      1 <0>        -0.0937
     26 C21        15.7237   -7.6576    5.3237 C.ar      1 <0>        -0.1225
     27 C22        16.8527   -6.9321    5.6550 C.ar      1 <0>        -0.1060
     28 C23        16.7579   -5.5720    5.8833 C.ar      1 <0>        -0.1222
     29 C24        15.5348   -4.9368    5.7765 C.ar      1 <0>        -0.0933
     30 N1         10.2843   -1.9703    0.7541 N.3       1 <0>        -0.8296
     31 H2         -0.9591    1.9053    0.0259 H         1 <0>         0.1253
     32 H3          1.1563    3.1654    0.0076 H         1 <0>         0.1264
     33 H4          3.3051    1.9634   -0.0196 H         1 <0>         0.1245
     34 H5          1.2231   -1.7588   -0.0176 H         1 <0>         0.1240
     35 H6         -0.9258   -0.5567    0.0082 H         1 <0>         0.1262
     36 H7          3.5884   -1.6586   -0.5549 H         1 <0>         0.0720
     37 H8          4.4573   -0.1052   -0.5563 H         1 <0>         0.0727
     38 H9          5.6808   -1.7984   -0.6363 H         1 <0>         0.1297
     39 H10         7.8138   -2.9899   -0.3379 H         1 <0>         0.1237
     40 H11         7.3600   -2.7569    3.8967 H         1 <0>         0.1340
     41 H12         5.2316   -1.5549    3.6068 H         1 <0>         0.1332
     42 H13         8.9916   -4.2513    2.9023 H         1 <0>         0.0905
     43 H14         9.1808   -4.3488    1.1351 H         1 <0>         0.0801
     44 H15        13.0466   -4.1171    6.0145 H         1 <0>         0.0834
     45 H16        12.2765   -5.6689    5.6058 H         1 <0>         0.0831
     46 H17        13.6178   -7.5901    4.9623 H         1 <0>         0.1247
     47 H18        15.7978   -8.7202    5.1454 H         1 <0>         0.1270
     48 H19        17.8088   -7.4278    5.7358 H         1 <0>         0.1261
     49 H20        17.6399   -5.0051    6.1424 H         1 <0>         0.1273
     50 H21        15.4613   -3.8736    5.9512 H         1 <0>         0.1252
     51 H22        10.4728   -2.6235    0.0085 H         1 <0>         0.3502
     52 H23         9.4563   -1.4277    0.5587 H         1 <0>         0.3584
@<TRIPOS>BOND
     1    1    6 ar
     2    1    2 ar
     3    1   31 1
     4    2    3 ar
     5    2   32 1
     6    3    4 ar
     7    3   33 1
     8    4    5 ar
     9    4    7 1
    10    5    6 ar
    11    5   34 1
    12    6   35 1
    13    7    8 1
    14    7   36 1
    15    7   37 1
    16    8    9 1
    17    9   14 ar
    18    9   10 ar
    19   10   11 ar
    20   10   38 1
    21   11   12 ar
    22   11   39 1
    23   12   13 ar
    24   12   15 1
    25   13   14 ar
    26   13   40 1
    27   14   41 1
    28   15   16 1
    29   15   42 1
    30   15   43 1
    31   16   17 1
    32   16   18 1
    33   16   30 1
    34   18   19 2
    35   18   20 1
    36   20   21 2
    37   20   22 1
    38   22   23 1
    39   23   24 1
    40   23   44 1
    41   23   45 1
    42   24   29 ar
    43   24   25 ar
    44   25   26 ar
    45   25   46 1
    46   26   27 ar
    47   26   47 1
    48   27   28 ar
    49   27   48 1
    50   28   29 ar
    51   28   49 1
    52   29   50 1
    53   30   51 1
    54   30   52 1
@<TRIPOS>MOLECULE
CHEMBL14549
   43    46     0     0     0
SMALL
USER_CHARGES

@<TRIPOS>ATOM
      1 C1         -0.0167    1.3781    0.0096 C.ar      1 <0>        -0.1232
      2 C2          1.1709    2.0855    0.0021 C.ar      1 <0>        -0.1171
      3 C3          2.3773    1.4107   -0.0130 C.ar      1 <0>        -0.1151
      4 C4          2.3960    0.0285   -0.0201 C.ar      1 <0>        -0.0786
      5 C5          1.2084   -0.6789   -0.0117 C.ar      1 <0>        -0.1159
      6 C6          0.0021   -0.0041    0.0020 C.ar      1 <0>        -0.1179
      7 C7          3.7112   -0.7071   -0.0376 C.3       1 <0>        -0.0397
      8 C8          4.1644   -0.9594    1.3773 C.ar      1 <0>        -0.1065
      9 C9          4.9522   -0.0267    2.0264 C.ar      1 <0>        -0.0728
     10 C10         5.3694   -0.2559    3.3232 C.ar      1 <0>        -0.1429
     11 C11         4.9969   -1.4228    3.9745 C.ar      1 <0>         0.1224
     12 C12         4.2060   -2.3568    3.3213 C.ar      1 <0>        -0.2028
     13 C13         3.7871   -2.1206    2.0262 C.ar      1 <0>        -0.0736
     14 O1          5.4064   -1.6507    5.2502 O.3       1 <0>        -0.3182
     15 C14         4.9849   -2.8733    5.8582 C.3       1 <0>         0.0351
     16 C15         5.5391   -2.9523    7.2821 C.3       1 <0>         0.0825
     17 N1          4.9453   -1.8894    8.0969 N.pl3     1 <0>        -0.4407
     18 C16         5.5536   -0.6888    8.1568 C.2       1 <0>         0.2211
     19 C17         4.9783    0.3006    8.9299 C.2       1 <0>        -0.0662
     20 N2          5.2584    1.5783    9.2405 N.2       1 <0>        -0.5133
     21 C18         4.3208    2.0262   10.0457 C.2       1 <0>         0.2509
     22 N3          3.4078    1.0975   10.2969 N.2       1 <0>        -0.5199
     23 C19         3.7312   -0.0141    9.6454 C.2       1 <0>         0.2587
     24 N4          3.2101   -1.2426    9.5165 N.2       1 <0>        -0.4351
     25 C20         3.7973   -2.1344    8.7665 C.2       1 <0>         0.2977
     26 H1         -0.9591    1.9053    0.0259 H         1 <0>         0.1215
     27 H2          1.1563    3.1654    0.0076 H         1 <0>         0.1223
     28 H3          3.3051    1.9634   -0.0196 H         1 <0>         0.1207
     29 H4          1.2231   -1.7588   -0.0176 H         1 <0>         0.1196
     30 H5         -0.9258   -0.5567    0.0082 H         1 <0>         0.1218
     31 H6          3.5884   -1.6586   -0.5549 H         1 <0>         0.0826
     32 H7          4.4573   -0.1052   -0.5563 H         1 <0>         0.0835
     33 H8          5.2420    0.8815    1.5189 H         1 <0>         0.1304
     34 H9          5.9853    0.4726    3.8295 H         1 <0>         0.1318
     35 H10         3.9147   -3.2660    3.8262 H         1 <0>         0.1273
     36 H11         3.1678   -2.8454    1.5188 H         1 <0>         0.1256
     37 H12         3.8958   -2.9068    5.8898 H         1 <0>         0.0770
     38 H13         5.3576   -3.7160    5.2759 H         1 <0>         0.0954
     39 H14         5.2928   -3.9221    7.7145 H         1 <0>         0.1372
     40 H15         6.6219   -2.8297    7.2579 H         1 <0>         0.1225
     41 H16         6.4688   -0.5046    7.6139 H         1 <0>         0.1887
     42 H17         4.2969    3.0264   10.4524 H         1 <0>         0.2059
     43 H18         3.3486   -3.1130    8.6810 H         1 <0>         0.2174
@<TRIPOS>BOND
     1    1    6 ar
     2    1    2 ar
     3    1   26 1
     4    2    3 ar
     5    2   27 1
     6    3    4 ar
     7    3   28 1
     8    4    5 ar
     9    4    7 1
    10    5    6 ar
    11    5   29 1
    12    6   30 1
    13    7    8 1
    14    7   31 1
    15    7   32 1
    16    8   13 ar
    17    8    9 ar
    18    9   10 ar
    19    9   33 1
    20   10   11 ar
    21   10   34 1
    22   11   12 ar
    23   11   14 1
    24   12   13 ar
    25   12   35 1
    26   13   36 1
    27   14   15 1
    28   15   16 1
    29   15   37 1
    30   15   38 1
    31   16   17 1
    32   16   39 1
    33   16   40 1
    34   17   25 1
    35   17   18 1
    36   18   19 2
    37   18   41 1
    38   19   23 1
    39   19   20 1
    40   20   21 2
    41   21   22 1
    42   21   42 1
    43   22   23 2
    44   23   24 1
    45   24   25 2
    46   25   43 1
@<TRIPOS>MOLECULE
CHEMBL14549__1
   44    47     0     0     0
SMALL
USER_CHARGES

@<TRIPOS>ATOM
      1 C1         -0.0167    1.3781    0.0096 C.ar      1 <0>        -0.1209
      2 C2          1.1709    2.0855    0.0021 C.ar      1 <0>        -0.1161
      3 C3          2.3773    1.4107   -0.0130 C.ar      1 <0>        -0.1146
      4 C4          2.3960    0.0285   -0.0201 C.ar      1 <0>        -0.0816
      5 C5          1.2084   -0.6789   -0.0117 C.ar      1 <0>        -0.1164
      6 C6          0.0021   -0.0041    0.0020 C.ar      1 <0>        -0.1177
      7 C7          3.7112   -0.7071   -0.0376 C.3       1 <0>        -0.0431
      8 C8          4.1644   -0.9594    1.3773 C.ar      1 <0>        -0.0951
      9 C9          4.9522   -0.0267    2.0264 C.ar      1 <0>        -0.0710
     10 C10         5.3694   -0.2559    3.3232 C.ar      1 <0>        -0.1353
     11 C11         4.9969   -1.4228    3.9745 C.ar      1 <0>         0.1117
     12 C12         4.2060   -2.3568    3.3213 C.ar      1 <0>        -0.2019
     13 C13         3.7871   -2.1206    2.0262 C.ar      1 <0>        -0.0740
     14 O1          5.4064   -1.6507    5.2502 O.3       1 <0>        -0.3045
     15 C14         4.9849   -2.8733    5.8582 C.3       1 <0>         0.0398
     16 C15         5.5391   -2.9523    7.2821 C.3       1 <0>         0.0576
     17 N1          5.1069   -4.2057    7.9054 N.ar      1 <0>        -0.3867
     18 C16         3.9664   -4.2372    8.5741 C.ar      1 <0>         0.2522
     19 C17         3.5696   -5.4390    9.1616 C.ar      1 <0>        -0.0050
     20 N2          2.5025   -5.8350    9.8974 N.2       1 <0>        -0.4520
     21 C18         2.6282   -7.0944   10.2006 C.2       1 <0>         0.3450
     22 N3          3.7856   -7.5885    9.6783 N.pl3     1 <0>        -0.5579
     23 C19         4.4078   -6.5629    9.0120 C.ar      1 <0>         0.3164
     24 N4          5.5339   -6.4382    8.3236 N.ar      1 <0>        -0.4363
     25 C20         5.8615   -5.2826    7.7836 C.ar      1 <0>         0.3530
     26 H1         -0.9591    1.9053    0.0259 H         1 <0>         0.1230
     27 H2          1.1563    3.1654    0.0076 H         1 <0>         0.1238
     28 H3          3.3051    1.9634   -0.0196 H         1 <0>         0.1214
     29 H4          1.2231   -1.7588   -0.0176 H         1 <0>         0.1189
     30 H5         -0.9258   -0.5567    0.0082 H         1 <0>         0.1223
     31 H6          3.5884   -1.6586   -0.5549 H         1 <0>         0.0843
     32 H7          4.4573   -0.1052   -0.5563 H         1 <0>         0.0864
     33 H8          5.2420    0.8815    1.5189 H         1 <0>         0.1353
     34 H9          5.9853    0.4726    3.8295 H         1 <0>         0.1358
     35 H10         3.9147   -3.2660    3.8262 H         1 <0>         0.1222
     36 H11         3.1678   -2.8454    1.5188 H         1 <0>         0.1277
     37 H12         3.8958   -2.9068    5.8898 H         1 <0>         0.0793
     38 H13         5.3576   -3.7160    5.2759 H         1 <0>         0.0811
     39 H14         6.6281   -2.9189    7.2505 H         1 <0>         0.1503
     40 H15         5.1664   -2.1096    7.8643 H         1 <0>         0.1466
     41 H16         3.3553   -3.3513    8.6638 H         1 <0>         0.2288
     42 H17         1.9185   -7.6647   10.7815 H         1 <0>         0.2597
     43 H18         6.7830   -5.2119    7.2248 H         1 <0>         0.2521
     44 H19         4.1103   -8.4987    9.7620 H         1 <0>         0.4556
@<TRIPOS>BOND
     1    1    6 ar
     2    1    2 ar
     3    1   26 1
     4    2    3 ar
     5    2   27 1
     6    3    4 ar
     7    3   28 1
     8    4    5 ar
     9    4    7 1
    10    5    6 ar
    11    5   29 1
    12    6   30 1
    13    7    8 1
    14    7   31 1
    15    7   32 1
    16    8   13 ar
    17    8    9 ar
    18    9   10 ar
    19    9   33 1
    20   10   11 ar
    21   10   34 1
    22   11   12 ar
    23   11   14 1
    24   12   13 ar
    25   12   35 1
    26   13   36 1
    27   14   15 1
    28   15   16 1
    29   15   37 1
    30   15   38 1
    31   16   17 1
    32   16   39 1
    33   16   40 1
    34   17   25 ar
    35   17   18 ar
    36   18   19 ar
    37   18   41 1
    38   19   23 ar
    39   19   20 1
    40   20   21 2
    41   21   22 1
    42   21   42 1
    43   22   23 1
    44   22   44 1
    45   23   24 ar
    46   24   25 ar
    47   25   43 1
@<TRIPOS>MOLECULE
CHEMBL432791
   52    55     0     0     0
SMALL
USER_CHARGES

@<TRIPOS>ATOM
      1 C1         -0.3094    1.1655    0.1164 C.ar      1 <0>        -0.1213
      2 C2          0.8914    1.8422    0.0109 C.ar      1 <0>        -0.1162
      3 C3          2.0799    1.1379   -0.0361 C.ar      1 <0>        -0.1148
      4 C4          2.0677   -0.2431    0.0229 C.ar      1 <0>        -0.0811
      5 C5          0.8670   -0.9198    0.1293 C.ar      1 <0>        -0.1161
      6 C6         -0.3216   -0.2156    0.1748 C.ar      1 <0>        -0.1176
      7 C7          3.3634   -1.0110   -0.0294 C.3       1 <0>        -0.0418
      8 C8          3.8877   -1.2073    1.3698 C.ar      1 <0>        -0.0976
      9 C9          4.7302   -0.2647    1.9296 C.ar      1 <0>        -0.0724
     10 C10         5.2126   -0.4425    3.2119 C.ar      1 <0>        -0.1377
     11 C11         4.8506   -1.5678    3.9380 C.ar      1 <0>         0.1137
     12 C12         4.0048   -2.5119    3.3742 C.ar      1 <0>        -0.2000
     13 C13         3.5209   -2.3269    2.0935 C.ar      1 <0>        -0.0738
     14 O1          5.3242   -1.7453    5.1994 O.3       1 <0>        -0.3260
     15 C14         4.9097   -2.9270    5.8878 C.3       1 <0>         0.0266
     16 C15         5.5391   -2.9523    7.2821 C.3       1 <0>        -0.0002
     17 N1          5.0368   -1.8166    8.0668 N.4       1 <0>        -0.3838
     18 C16         5.7553   -1.7510    9.3450 C.3       1 <0>        -0.0023
     19 C17         5.2933   -0.5226   10.1318 C.3       1 <0>        -0.1352
     20 C18         3.7884   -0.6282   10.3951 C.3       1 <0>         0.0274
     21 C19         3.0550   -0.7709    9.0584 C.3       1 <0>        -0.1335
     22 C20         3.5999   -1.9901    8.3114 C.3       1 <0>        -0.0081
     23 C21         3.3119    0.6149   11.1012 C.2       1 <0>         0.0341
     24 N2          2.7374    0.6752   12.2938 N.2       1 <0>        -0.3788
     25 N3          2.4806    1.9144   12.5405 N.2       1 <0>        -0.1842
     26 N4          2.8738    2.6304   11.5452 N.2       1 <0>        -0.1846
     27 N5          3.3920    1.8588   10.6515 N.2       1 <0>        -0.3828
     28 H1         -1.2377    1.7159    0.1576 H         1 <0>         0.1225
     29 H2          0.9009    2.9212   -0.0352 H         1 <0>         0.1233
     30 H3          3.0180    1.6666   -0.1192 H         1 <0>         0.1209
     31 H4          0.8575   -1.9988    0.1750 H         1 <0>         0.1193
     32 H5         -1.2597   -0.7443    0.2576 H         1 <0>         0.1222
     33 H6          3.1915   -1.9826   -0.4926 H         1 <0>         0.0837
     34 H7          4.0931   -0.4528   -0.6159 H         1 <0>         0.0849
     35 H8          5.0117    0.6111    1.3639 H         1 <0>         0.1333
     36 H9          5.8712    0.2936    3.6485 H         1 <0>         0.1340
     37 H10         3.7215   -3.3888    3.9375 H         1 <0>         0.1271
     38 H11         2.8589   -3.0593    1.6558 H         1 <0>         0.1277
     39 H12         3.8235   -2.9321    5.9793 H         1 <0>         0.0864
     40 H13         5.2313   -3.8052    5.3279 H         1 <0>         0.1054
     41 H14         5.2762   -3.8843    7.7825 H         1 <0>         0.1472
     42 H15         6.6231   -2.8812    7.1927 H         1 <0>         0.1395
     43 H16         5.5491   -2.6513    9.9238 H         1 <0>         0.1275
     44 H17         6.8264   -1.6791    9.1560 H         1 <0>         0.1277
     45 H18         5.8266   -0.4767   11.0813 H         1 <0>         0.1085
     46 H19         5.4993    0.3784    9.5539 H         1 <0>         0.0938
     47 H20         3.5874   -1.5012   11.0161 H         1 <0>         0.0898
     48 H21         1.9884   -0.9025    9.2406 H         1 <0>         0.1075
     49 H22         3.2145    0.1249    8.4583 H         1 <0>         0.0937
     50 H23         3.0798   -2.0947    7.3593 H         1 <0>         0.1232
     51 H24         3.4396   -2.8853    8.9122 H         1 <0>         0.1285
     52 H25         5.1887   -0.9612    7.5536 H         1 <0>         0.4304
@<TRIPOS>BOND
     1    1    6 ar
     2    1    2 ar
     3    1   28 1
     4    2    3 ar
     5    2   29 1
     6    3    4 ar
     7    3   30 1
     8    4    5 ar
     9    4    7 1
    10    5    6 ar
    11    5   31 1
    12    6   32 1
    13    7    8 1
    14    7   33 1
    15    7   34 1
    16    8   13 ar
    17    8    9 ar
    18    9   10 ar
    19    9   35 1
    20   10   11 ar
    21   10   36 1
    22   11   12 ar
    23   11   14 1
    24   12   13 ar
    25   12   37 1
    26   13   38 1
    27   14   15 1
    28   15   16 1
    29   15   39 1
    30   15   40 1
    31   16   17 1
    32   16   41 1
    33   16   42 1
    34   17   22 1
    35   17   18 1
    36   17   52 1
    37   18   19 1
    38   18   43 1
    39   18   44 1
    40   19   20 1
    41   19   45 1
    42   19   46 1
    43   20   21 1
    44   20   47 1
    45   20   23 1
    46   21   22 1
    47   21   48 1
    48   21   49 1
    49   22   50 1
    50   22   51 1
    51   23   24 2
    52   23   27 1
    53   24   25 1
    54   25   26 2
    55   26   27 1
@<TRIPOS>MOLECULE
CHEMBL454177
   49    52     0     0     0
SMALL
USER_CHARGES

@<TRIPOS>ATOM
      1 C1          0.6099   -0.4870   -4.6699 C.ar      1 <0>        -0.1002
      2 C2          1.8643   -0.2667   -5.2197 C.ar      1 <0>        -0.1169
      3 C3          3.0024   -0.5847   -4.5134 C.ar      1 <0>        -0.0717
      4 C4          2.8939   -1.1331   -3.2329 C.ar      1 <0>         0.0673
      5 C5          1.6214   -1.3536   -2.6809 C.ar      1 <0>         0.0511
      6 C6          0.4856   -1.0276   -3.4070 C.ar      1 <0>        -0.1042
      7 N1          1.8359   -1.8951   -1.4250 N.pl3     1 <0>        -0.5852
      8 H1          1.1535   -2.1595   -0.7883 H         1 <0>         0.4296
      9 C7          3.1856   -1.9878   -1.2493 C.2       1 <0>         0.4558
     10 N2          3.8050   -1.5404   -2.3107 N.2       1 <0>        -0.5192
     11 O1          3.7932   -2.4708   -0.1414 O.3       1 <0>        -0.2336
     12 C8          5.1473   -2.5934   -0.1581 C.ar      1 <0>         0.0771
     13 C9          5.9473   -1.4696   -0.0119 C.ar      1 <0>        -0.0617
     14 C10         7.3228   -1.5941   -0.0288 C.ar      1 <0>        -0.1271
     15 C11         7.9042   -2.8429   -0.1920 C.ar      1 <0>         0.1243
     16 C12         7.1043   -3.9665   -0.3386 C.ar      1 <0>        -0.1906
     17 C13         5.7288   -3.8429   -0.3155 C.ar      1 <0>        -0.0674
     18 O2          9.2583   -2.9654   -0.2087 O.3       1 <0>        -0.3251
     19 C14         9.7885   -4.2812   -0.3806 C.3       1 <0>         0.0237
     20 C15        11.3173   -4.2199   -0.3734 C.3       1 <0>        -0.0008
     21 N3         11.7825   -3.7550    0.9401 N.4       1 <0>        -0.3845
     22 C16        13.2343   -3.5429    0.8964 C.3       1 <0>        -0.0069
     23 C17        13.7122   -2.9816    2.2373 C.3       1 <0>        -0.1467
     24 C18        13.3734   -3.9767    3.3509 C.3       1 <0>        -0.1391
     25 C19        11.8661   -4.2473    3.3391 C.3       1 <0>        -0.1455
     26 C20        11.4566   -4.7617    1.9574 C.3       1 <0>        -0.0133
     27 H2         -0.2752   -0.2293   -5.2326 H         1 <0>         0.1357
     28 H3          1.9488    0.1571   -6.2094 H         1 <0>         0.1343
     29 H4          3.9759   -0.4112   -4.9478 H         1 <0>         0.1310
     30 H5         -0.4939   -1.1970   -2.9848 H         1 <0>         0.1277
     31 H6          5.4947   -0.4972    0.1148 H         1 <0>         0.1432
     32 H7          7.9456   -0.7191    0.0846 H         1 <0>         0.1428
     33 H8          7.5570   -4.9387   -0.4664 H         1 <0>         0.1371
     34 H9          5.1060   -4.7185   -0.4245 H         1 <0>         0.1405
     35 H10         9.4466   -4.9199    0.4338 H         1 <0>         0.0879
     36 H11         9.4457   -4.6897   -1.3312 H         1 <0>         0.1115
     37 H12        11.7216   -5.2125   -0.5716 H         1 <0>         0.1497
     38 H13        11.6568   -3.5286   -1.1447 H         1 <0>         0.1434
     39 H14        13.7339   -4.4918    0.7015 H         1 <0>         0.1292
     40 H15        13.4741   -2.8370    0.1013 H         1 <0>         0.1313
     41 H16        14.7906   -2.8265    2.2034 H         1 <0>         0.1131
     42 H17        13.2133   -2.0325    2.4331 H         1 <0>         0.0881
     43 H18        13.9124   -4.9091    3.1830 H         1 <0>         0.0820
     44 H19        13.6608   -3.5567    4.3149 H         1 <0>         0.0946
     45 H20        11.6250   -4.9969    4.0928 H         1 <0>         0.1122
     46 H21        11.3289   -3.3244    3.5578 H         1 <0>         0.0881
     47 H22        10.3841   -4.9556    1.9456 H         1 <0>         0.1274
     48 H23        11.9942   -5.6847    1.7398 H         1 <0>         0.1303
     49 H24        11.3244   -2.8858    1.1698 H         1 <0>         0.4295
@<TRIPOS>BOND
     1    1    6 ar
     2    1    2 ar
     3    1   27 1
     4    2    3 ar
     5    2   28 1
     6    3    4 ar
     7    3   29 1
     8    4   10 1
     9    4    5 ar
    10    5    6 ar
    11    5    7 1
    12    6   30 1
    13    7    8 1
    14    7    9 1
    15    9   10 2
    16    9   11 1
    17   11   12 1
    18   12   17 ar
    19   12   13 ar
    20   13   14 ar
    21   13   31 1
    22   14   15 ar
    23   14   32 1
    24   15   16 ar
    25   15   18 1
    26   16   17 ar
    27   16   33 1
    28   17   34 1
    29   18   19 1
    30   19   20 1
    31   19   35 1
    32   19   36 1
    33   20   21 1
    34   20   37 1
    35   20   38 1
    36   21   26 1
    37   21   22 1
    38   21   49 1
    39   22   23 1
    40   22   39 1
    41   22   40 1
    42   23   24 1
    43   23   41 1
    44   23   42 1
    45   24   25 1
    46   24   43 1
    47   24   44 1
    48   25   26 1
    49   25   45 1
    50   25   46 1
    51   26   47 1
    52   26   48 1
@<TRIPOS>MOLECULE
CHEMBL162979
   45    47     0     0     0
SMALL
USER_CHARGES

@<TRIPOS>ATOM
      1 C1         -0.0167    1.3781    0.0096 C.ar      1 <0>        -0.1195
      2 C2          1.1709    2.0855    0.0021 C.ar      1 <0>        -0.1163
      3 C3          2.3773    1.4107   -0.0130 C.ar      1 <0>        -0.1142
      4 C4          2.3960    0.0285   -0.0201 C.ar      1 <0>        -0.0828
      5 C5          1.2084   -0.6789   -0.0117 C.ar      1 <0>        -0.1151
      6 C6          0.0021   -0.0041    0.0020 C.ar      1 <0>        -0.1173
      7 C7          3.7112   -0.7071   -0.0376 C.3       1 <0>        -0.0505
      8 C8          4.1644   -0.9594    1.3773 C.ar      1 <0>        -0.0453
      9 C9          4.9526   -0.0250    2.0250 C.ar      1 <0>        -0.1149
     10 C10         5.3709   -0.2500    3.3204 C.ar      1 <0>        -0.0850
     11 C11         4.9969   -1.4228    3.9773 C.ar      1 <0>        -0.1038
     12 C12         4.2015   -2.3611    3.3186 C.ar      1 <0>        -0.0946
     13 C13         3.7859   -2.1219    2.0249 C.ar      1 <0>        -0.1166
     14 C14         5.4419   -1.6705    5.3650 C.2       1 <0>        -0.0129
     15 C15         5.0850   -2.7858    5.9864 C.2       1 <0>        -0.2555
     16 C16         5.5387   -3.0383    7.4011 C.3       1 <0>         0.0427
     17 N1          4.3693   -3.2992    8.2512 N.4       1 <0>        -0.3932
     18 C17         3.7523   -4.6006    7.8881 C.3       1 <0>        -0.0051
     19 C18         2.9580   -4.9840    9.1619 C.3       1 <0>        -0.1464
     20 C19         3.8815   -4.5010   10.3037 C.3       1 <0>        -0.1452
     21 C20         4.7853   -3.4305    9.6644 C.3       1 <0>        -0.0094
     22 H1         -0.9591    1.9053    0.0259 H         1 <0>         0.1237
     23 H2          1.1563    3.1654    0.0076 H         1 <0>         0.1242
     24 H3          3.3051    1.9634   -0.0196 H         1 <0>         0.1212
     25 H4          1.2231   -1.7588   -0.0176 H         1 <0>         0.1200
     26 H5         -0.9258   -0.5567    0.0082 H         1 <0>         0.1234
     27 H6          3.5884   -1.6586   -0.5549 H         1 <0>         0.0876
     28 H7          4.4573   -0.1052   -0.5563 H         1 <0>         0.0884
     29 H8          5.2413    0.8824    1.5155 H         1 <0>         0.1303
     30 H9          5.9867    0.4800    3.8247 H         1 <0>         0.1291
     31 H10         3.9087   -3.2708    3.8216 H         1 <0>         0.1230
     32 H11         3.1671   -2.8456    1.5152 H         1 <0>         0.1284
     33 H12         6.0578   -0.9429    5.8725 H         1 <0>         0.1295
     34 H13         4.4691   -3.5134    5.4788 H         1 <0>         0.1352
     35 H14         6.2024   -3.9027    7.4210 H         1 <0>         0.1332
     36 H15         6.0707   -2.1630    7.7738 H         1 <0>         0.1282
     37 H16         3.0815   -4.4842    7.0369 H         1 <0>         0.1332
     38 H17         4.5202   -5.3443    7.6752 H         1 <0>         0.1331
     39 H18         2.0018   -4.4615    9.1920 H         1 <0>         0.0973
     40 H19         2.8111   -6.0627    9.2148 H         1 <0>         0.1159
     41 H20         3.2907   -4.0653   11.1094 H         1 <0>         0.1045
     42 H21         4.4831   -5.3286   10.6795 H         1 <0>         0.1034
     43 H22         5.8276   -3.7449    9.7170 H         1 <0>         0.1303
     44 H23         4.6552   -2.4788   10.1797 H         1 <0>         0.1312
     45 H24         3.6954   -2.5545    8.1546 H         1 <0>         0.4269
@<TRIPOS>BOND
     1    1    6 ar
     2    1    2 ar
     3    1   22 1
     4    2    3 ar
     5    2   23 1
     6    3    4 ar
     7    3   24 1
     8    4    5 ar
     9    4    7 1
    10    5    6 ar
    11    5   25 1
    12    6   26 1
    13    7    8 1
    14    7   27 1
    15    7   28 1
    16    8   13 ar
    17    8    9 ar
    18    9   10 ar
    19    9   29 1
    20   10   11 ar
    21   10   30 1
    22   11   12 ar
    23   11   14 1
    24   12   13 ar
    25   12   31 1
    26   13   32 1
    27   14   15 2
    28   14   33 1
    29   15   16 1
    30   15   34 1
    31   16   17 1
    32   16   35 1
    33   16   36 1
    34   17   21 1
    35   17   18 1
    36   17   45 1
    37   18   19 1
    38   18   37 1
    39   18   38 1
    40   19   20 1
    41   19   39 1
    42   19   40 1
    43   20   21 1
    44   20   41 1
    45   20   42 1
    46   21   43 1
    47   21   44 1
@<TRIPOS>MOLECULE
CHEMBL119545
   46    47     0     0     0
SMALL
USER_CHARGES

@<TRIPOS>ATOM
      1 C1         -0.0178    1.4648    0.0101 C.3       1 <0>        -0.0541
      2 N1          0.0021   -0.0041    0.0020 N.4       1 <0>        -0.3860
      3 C2          0.6897   -0.4778   -1.2066 C.3       1 <0>        -0.0055
      4 C3          2.1588   -0.0534   -1.1571 C.3       1 <0>        -0.1491
      5 C4          2.8749   -0.5468   -2.4159 C.3       1 <0>         0.0628
      6 O1          4.2470   -0.1503   -2.3696 O.3       1 <0>        -0.3139
      7 C5          5.0295   -0.5121   -3.4202 C.ar      1 <0>         0.1245
      8 C6          4.4865   -1.2289   -4.4766 C.ar      1 <0>        -0.2037
      9 C7          5.2840   -1.5951   -5.5436 C.ar      1 <0>        -0.0691
     10 C8          6.6223   -1.2482   -5.5590 C.ar      1 <0>        -0.1125
     11 C9          7.1660   -0.5343   -4.5071 C.ar      1 <0>        -0.0683
     12 C10         6.3714   -0.1604   -3.4407 C.ar      1 <0>        -0.1454
     13 C11         7.4900   -1.6494   -6.7239 C.3       1 <0>         0.0055
     14 C12         7.4564   -0.5667   -7.7716 C.2       1 <0>        -0.1343
     15 C13         8.2677    0.5099   -7.9129 C.2       1 <0>        -0.1576
     16 C14         8.0481    1.3816   -8.9630 C.2       1 <0>        -0.1555
     17 C15         7.0279    1.1340   -9.8204 C.2       1 <0>        -0.1736
     18 S1          6.3425   -0.3735   -9.1533 S.3       1 <0>         0.0310
     19 C16        -1.3761   -0.5125    0.0124 C.3       1 <0>         0.0142
     20 C17        -2.0530   -0.1242    1.3284 C.3       1 <0>        -0.2159
     21 C18        -3.4668   -0.6458    1.3391 C.2       1 <0>         0.4969
     22 O2         -3.8935   -1.2703    0.3828 O.co2     1 <0>        -0.6870
     23 O3         -4.1840   -0.4433    2.3041 O.co2     1 <0>        -0.6716
     24 H1          1.0047    1.8421    0.0024 H         1 <0>         0.1177
     25 H2         -0.5450    1.8259   -0.8730 H         1 <0>         0.1204
     26 H3         -0.5280    1.8163    0.9069 H         1 <0>         0.1266
     27 H4          0.6271   -1.5648   -1.2578 H         1 <0>         0.1324
     28 H5          0.2159   -0.0447   -2.0875 H         1 <0>         0.1309
     29 H6          2.2214    1.0336   -1.1059 H         1 <0>         0.0975
     30 H7          2.6326   -0.4865   -0.2761 H         1 <0>         0.0970
     31 H8          2.8123   -1.6338   -2.4670 H         1 <0>         0.0731
     32 H9          2.4011   -0.1137   -3.2968 H         1 <0>         0.0723
     33 H10         3.4414   -1.5007   -4.4647 H         1 <0>         0.1281
     34 H11         4.8617   -2.1531   -6.3662 H         1 <0>         0.1270
     35 H12         8.2117   -0.2648   -4.5213 H         1 <0>         0.1320
     36 H13         6.7955    0.4011   -2.6214 H         1 <0>         0.1325
     37 H14         8.5150   -1.7919   -6.3815 H         1 <0>         0.0978
     38 H15         7.1170   -2.5802   -7.1512 H         1 <0>         0.0899
     39 H16         9.0735    0.6842   -7.2153 H         1 <0>         0.1319
     40 H17         8.6797    2.2471   -9.0980 H         1 <0>         0.1337
     41 H18         6.7137    1.6997  -10.6851 H         1 <0>         0.1853
     42 H19        -1.9290   -0.0808   -0.8218 H         1 <0>         0.1291
     43 H20        -1.3635   -1.5983   -0.0831 H         1 <0>         0.1299
     44 H21        -1.5001   -0.5559    2.1627 H         1 <0>         0.0807
     45 H22        -2.0656    0.9616    1.4239 H         1 <0>         0.0817
     46 H23         0.4901   -0.3383    0.8195 H         1 <0>         0.4205
@<TRIPOS>BOND
     1    1    2 1
     2    1   24 1
     3    1   25 1
     4    1   26 1
     5    2    3 1
     6    2   19 1
     7    2   46 1
     8    3    4 1
     9    3   27 1
    10    3   28 1
    11    4    5 1
    12    4   29 1
    13    4   30 1
    14    5    6 1
    15    5   31 1
    16    5   32 1
    17    6    7 1
    18    7   12 ar
    19    7    8 ar
    20    8    9 ar
    21    8   33 1
    22    9   10 ar
    23    9   34 1
    24   10   11 ar
    25   10   13 1
    26   11   12 ar
    27   11   35 1
    28   12   36 1
    29   13   14 1
    30   13   37 1
    31   13   38 1
    32   14   18 1
    33   14   15 2
    34   15   16 1
    35   15   39 1
    36   16   17 2
    37   16   40 1
    38   17   18 1
    39   17   41 1
    40   19   20 1
    41   19   42 1
    42   19   43 1
    43   20   21 1
    44   20   44 1
    45   20   45 1
    46   21   22 2
    47   21   23 1
@<TRIPOS>MOLECULE
CHEMBL14502
   43    46     0     0     0
SMALL
USER_CHARGES

@<TRIPOS>ATOM
      1 C1         -0.0167    1.3781    0.0096 C.ar      1 <0>        -0.1240
      2 C2          1.1709    2.0855    0.0021 C.ar      1 <0>        -0.1176
      3 C3          2.3773    1.4107   -0.0130 C.ar      1 <0>        -0.1151
      4 C4          2.3960    0.0285   -0.0201 C.ar      1 <0>        -0.0771
      5 C5          1.2084   -0.6789   -0.0117 C.ar      1 <0>        -0.1158
      6 C6          0.0021   -0.0041    0.0020 C.ar      1 <0>        -0.1179
      7 C7          3.7112   -0.7071   -0.0376 C.3       1 <0>        -0.0395
      8 C8          4.1644   -0.9594    1.3773 C.ar      1 <0>        -0.1092
      9 C9          4.9522   -0.0267    2.0264 C.ar      1 <0>        -0.0732
     10 C10         5.3694   -0.2559    3.3232 C.ar      1 <0>        -0.1442
     11 C11         4.9969   -1.4228    3.9745 C.ar      1 <0>         0.1255
     12 C12         4.2060   -2.3568    3.3213 C.ar      1 <0>        -0.2029
     13 C13         3.7871   -2.1206    2.0262 C.ar      1 <0>        -0.0726
     14 O1          5.4064   -1.6507    5.2502 O.3       1 <0>        -0.3101
     15 C14         4.9849   -2.8733    5.8582 C.3       1 <0>         0.0473
     16 C15         5.5391   -2.9523    7.2821 C.3       1 <0>         0.1155
     17 N1          5.1069   -4.2057    7.9054 N.pl3     1 <0>        -0.4756
     18 C16         4.0139   -4.3752    8.7011 C.2       1 <0>         0.2807
     19 N2          3.9272   -5.6161    9.0836 N.2       1 <0>        -0.4656
     20 C17         4.9576   -6.3233    8.5592 C.ar      1 <0>        -0.0551
     21 C18         5.7256   -5.4251    7.7899 C.ar      1 <0>         0.2733
     22 N3          6.8011   -5.8754    7.1592 N.ar      1 <0>        -0.5142
     23 C19         7.1448   -7.1435    7.2478 C.ar      1 <0>         0.3160
     24 N4          6.4509   -8.0167    7.9550 N.ar      1 <0>        -0.5196
     25 C20         5.3687   -7.6552    8.6236 C.ar      1 <0>         0.2255
     26 H1         -0.9591    1.9053    0.0259 H         1 <0>         0.1211
     27 H2          1.1563    3.1654    0.0076 H         1 <0>         0.1220
     28 H3          3.3051    1.9634   -0.0196 H         1 <0>         0.1208
     29 H4          1.2231   -1.7588   -0.0176 H         1 <0>         0.1196
     30 H5         -0.9258   -0.5567    0.0082 H         1 <0>         0.1215
     31 H6          3.5884   -1.6586   -0.5549 H         1 <0>         0.0821
     32 H7          4.4573   -0.1052   -0.5563 H         1 <0>         0.0834
     33 H8          5.2420    0.8815    1.5189 H         1 <0>         0.1304
     34 H9          5.9853    0.4726    3.8295 H         1 <0>         0.1327
     35 H10         3.9147   -3.2660    3.8262 H         1 <0>         0.1244
     36 H11         3.1678   -2.8454    1.5188 H         1 <0>         0.1245
     37 H12         3.8958   -2.9068    5.8898 H         1 <0>         0.0698
     38 H13         5.3576   -3.7160    5.2759 H         1 <0>         0.0710
     39 H14         6.6281   -2.9189    7.2505 H         1 <0>         0.1100
     40 H15         5.1664   -2.1096    7.8643 H         1 <0>         0.1150
     41 H16         3.3207   -3.5935    8.9747 H         1 <0>         0.2299
     42 H17         8.0259   -7.4819    6.7228 H         1 <0>         0.2073
     43 H18         4.8081   -8.3781    9.1977 H         1 <0>         0.1799
@<TRIPOS>BOND
     1    1    6 ar
     2    1    2 ar
     3    1   26 1
     4    2    3 ar
     5    2   27 1
     6    3    4 ar
     7    3   28 1
     8    4    5 ar
     9    4    7 1
    10    5    6 ar
    11    5   29 1
    12    6   30 1
    13    7    8 1
    14    7   31 1
    15    7   32 1
    16    8   13 ar
    17    8    9 ar
    18    9   10 ar
    19    9   33 1
    20   10   11 ar
    21   10   34 1
    22   11   12 ar
    23   11   14 1
    24   12   13 ar
    25   12   35 1
    26   13   36 1
    27   14   15 1
    28   15   16 1
    29   15   37 1
    30   15   38 1
    31   16   17 1
    32   16   39 1
    33   16   40 1
    34   17   21 1
    35   17   18 1
    36   18   19 2
    37   18   41 1
    38   19   20 1
    39   20   25 ar
    40   20   21 ar
    41   21   22 ar
    42   22   23 ar
    43   23   24 ar
    44   23   42 1
    45   24   25 ar
    46   25   43 1
@<TRIPOS>MOLECULE
CHEMBL162156
   42    44     0     0     0
SMALL
USER_CHARGES

@<TRIPOS>ATOM
      1 C1         -0.0162    1.3409    0.0094 C.2       1 <0>        -0.2133
      2 C2          1.3313    1.7689   -0.0012 C.2       1 <0>        -0.2024
      3 C3          2.0923    0.6599   -0.0144 C.2       1 <0>        -0.0147
      4 O1          1.2819   -0.4111   -0.0124 O.3       1 <0>        -0.1762
      5 C4          0.0021   -0.0041    0.0020 C.2       1 <0>        -0.0381
      6 C5          3.5989    0.6249   -0.0294 C.3       1 <0>        -0.0009
      7 C6          4.1150    0.6060    1.3863 C.ar      1 <0>        -0.1030
      8 C7          4.3739    1.7951    2.0425 C.ar      1 <0>        -0.0669
      9 C8          4.8475    1.7804    3.3402 C.ar      1 <0>        -0.1402
     10 C9          5.0630    0.5711    3.9850 C.ar      1 <0>         0.1105
     11 C10         4.8021   -0.6207    3.3246 C.ar      1 <0>        -0.1999
     12 C11         4.3236   -0.6005    2.0288 C.ar      1 <0>        -0.0669
     13 O2          5.5293    0.5540    5.2614 O.3       1 <0>        -0.3254
     14 C12         5.7276   -0.7272    5.8625 C.3       1 <0>         0.0278
     15 C13         6.2519   -0.5458    7.2884 C.3       1 <0>         0.0013
     16 N1          5.2257    0.1131    8.1074 N.4       1 <0>        -0.3913
     17 C14         5.0050    1.4898    7.6156 C.3       1 <0>        -0.0014
     18 C15         4.7391    2.3276    8.8912 C.3       1 <0>        -0.1457
     19 C16         5.7143    1.6732    9.9049 C.3       1 <0>        -0.1419
     20 C17         5.6783    0.1821    9.5089 C.3       1 <0>        -0.0135
     21 H1         -0.8920    1.9726    0.0252 H         1 <0>         0.1499
     22 H2          1.6822    2.7903    0.0004 H         1 <0>         0.1476
     23 H3         -0.8653   -0.6475    0.0072 H         1 <0>         0.2042
     24 H4          3.9364   -0.2706   -0.5512 H         1 <0>         0.0947
     25 H5          3.9777    1.5089   -0.5424 H         1 <0>         0.1075
     26 H6          4.2060    2.7363    1.5401 H         1 <0>         0.1367
     27 H7          5.0502    2.7095    3.8521 H         1 <0>         0.1336
     28 H8          4.9690   -1.5634    3.8244 H         1 <0>         0.1281
     29 H9          4.1161   -1.5279    1.5157 H         1 <0>         0.1316
     30 H10         4.7807   -1.2664    5.8894 H         1 <0>         0.0853
     31 H11         6.4522   -1.2944    5.2783 H         1 <0>         0.1091
     32 H12         6.4872   -1.5206    7.7157 H         1 <0>         0.1490
     33 H13         7.1516    0.0692    7.2692 H         1 <0>         0.1405
     34 H14         5.8929    1.8554    7.0997 H         1 <0>         0.1376
     35 H15         4.1400    1.5220    6.9532 H         1 <0>         0.1338
     36 H16         4.9899    3.3759    8.7291 H         1 <0>         0.1162
     37 H17         3.7052    2.2213    9.2196 H         1 <0>         0.0968
     38 H18         6.7195    2.0784    9.7893 H         1 <0>         0.0986
     39 H19         5.3576    1.8095   10.9258 H         1 <0>         0.1124
     40 H20         4.9802   -0.3553   10.1509 H         1 <0>         0.1325
     41 H21         6.6752   -0.2495    9.5984 H         1 <0>         0.1318
     42 H22         4.3625   -0.4068    8.0545 H         1 <0>         0.4245
@<TRIPOS>BOND
     1    1    5 2
     2    1    2 1
     3    1   21 1
     4    2    3 2
     5    2   22 1
     6    3    4 1
     7    3    6 1
     8    4    5 1
     9    5   23 1
    10    6    7 1
    11    6   24 1
    12    6   25 1
    13    7   12 ar
    14    7    8 ar
    15    8    9 ar
    16    8   26 1
    17    9   10 ar
    18    9   27 1
    19   10   11 ar
    20   10   13 1
    21   11   12 ar
    22   11   28 1
    23   12   29 1
    24   13   14 1
    25   14   15 1
    26   14   30 1
    27   14   31 1
    28   15   16 1
    29   15   32 1
    30   15   33 1
    31   16   20 1
    32   16   17 1
    33   16   42 1
    34   17   18 1
    35   17   34 1
    36   17   35 1
    37   18   19 1
    38   18   36 1
    39   18   37 1
    40   19   20 1
    41   19   38 1
    42   19   39 1
    43   20   40 1
    44   20   41 1
@<TRIPOS>MOLECULE
CHEMBL481672
   69    74     0     0     0
SMALL
USER_CHARGES

@<TRIPOS>ATOM
      1 C1          2.0877    0.0184   -0.4350 C.ar      1 <0>        -0.1266
      2 C2          3.3966    0.4101   -0.6231 C.ar      1 <0>        -0.0834
      3 C3          4.3833   -0.5513   -0.8558 C.ar      1 <0>        -0.1123
      4 C4          4.0356   -1.9039   -0.8962 C.ar      1 <0>        -0.0832
      5 C5          2.7226   -2.2809   -0.7064 C.ar      1 <0>        -0.1262
      6 C6          1.7506   -1.3231   -0.4764 C.ar      1 <0>        -0.1258
      7 C7          0.3181   -1.7431   -0.2695 C.3       1 <0>        -0.0859
      8 C8         -0.4018   -1.7823   -1.6190 C.3       1 <0>        -0.0025
      9 N1         -1.7981   -2.1916   -1.4173 N.4       1 <0>        -0.3930
     10 C9         -1.8739   -3.6303   -1.0482 C.3       1 <0>         0.0383
     11 H1         -1.1332   -3.9028   -0.2964 H         1 <0>         0.1455
     12 C10        -1.6535   -4.3773   -2.3838 C.3       1 <0>        -0.1684
     13 C11        -2.1029   -3.3809   -3.4727 C.3       1 <0>        -0.1412
     14 C12        -2.5540   -2.1224   -2.6962 C.3       1 <0>         0.0349
     15 H2         -2.3506   -1.2037   -3.2464 H         1 <0>         0.1491
     16 C13        -4.0434   -2.2895   -2.3547 C.3       1 <0>        -0.1463
     17 C14        -4.2637   -3.6866   -1.7677 C.3       1 <0>         0.1522
     18 C15        -3.3097   -3.9033   -0.5720 C.3       1 <0>        -0.1743
     19 N2         -4.0023   -4.6948   -2.7979 N.pl3     1 <0>        -0.7580
     20 C16        -3.8171   -6.0335   -2.4357 C.ar      1 <0>         0.1652
     21 C17        -4.2771   -6.4910   -1.2078 C.ar      1 <0>        -0.1527
     22 C18        -4.0944   -7.8125   -0.8512 C.ar      1 <0>        -0.1490
     23 C19        -3.4514   -8.6831   -1.7192 C.ar      1 <0>         0.0860
     24 C20        -2.9912   -8.2267   -2.9458 C.ar      1 <0>        -0.0950
     25 C21        -3.1783   -6.9068   -3.3062 C.ar      1 <0>        -0.1464
     26 O1         -3.2718   -9.9842   -1.3673 O.3       1 <0>        -0.2550
     27 C22        -3.8488  -10.4192   -0.2175 C.ar      1 <0>         0.1057
     28 C23        -5.2312  -10.5304   -0.1349 C.ar      1 <0>        -0.1401
     29 C24        -5.8204  -10.9710    1.0302 C.ar      1 <0>        -0.0540
     30 C25        -5.0261  -11.3063    2.1287 C.ar      1 <0>        -0.0173
     31 C26        -3.6369  -11.1935    2.0417 C.ar      1 <0>        -0.0711
     32 C27        -3.0549  -10.7572    0.8713 C.ar      1 <0>        -0.1214
     33 C28        -5.6539  -11.7786    3.3800 C.2       1 <0>         0.2248
     34 N3         -6.9420  -11.9307    3.5814 N.2       1 <0>        -0.4682
     35 C29        -7.1307  -12.3760    4.8333 C.2       1 <0>        -0.0386
     36 C30        -5.9235  -12.4994    5.4133 C.2       1 <0>        -0.0638
     37 O2         -5.0014  -12.1303    4.5016 O.3       1 <0>        -0.1962
     38 C31         5.7857   -0.1402   -1.0584 C.2       1 <0>         0.5123
     39 O3          6.0868    1.0446   -1.0228 O.co2     1 <0>        -0.6789
     40 O4          6.6471   -0.9841   -1.2619 O.co2     1 <0>        -0.6788
     41 H3          1.3246    0.7601   -0.2506 H         1 <0>         0.1141
     42 H4          3.6582    1.4575   -0.5909 H         1 <0>         0.1317
     43 H5          4.7931   -2.6525   -1.0760 H         1 <0>         0.1316
     44 H6          2.4522   -3.3260   -0.7377 H         1 <0>         0.1134
     45 H7          0.2919   -2.7333    0.1852 H         1 <0>         0.0849
     46 H8         -0.1788   -1.0286    0.3868 H         1 <0>         0.0864
     47 H9         -0.3756   -0.7920   -2.0737 H         1 <0>         0.1285
     48 H10         0.0951   -2.4967   -2.2753 H         1 <0>         0.1296
     49 H11        -0.5999   -4.6268   -2.5094 H         1 <0>         0.0843
     50 H12        -2.2647   -5.2791   -2.4193 H         1 <0>         0.1504
     51 H13        -1.2702   -3.1405   -4.1338 H         1 <0>         0.0905
     52 H14        -2.9349   -3.7929   -4.0437 H         1 <0>         0.1158
     53 H15        -4.3371   -1.5360   -1.6239 H         1 <0>         0.1022
     54 H16        -4.6404   -2.1754   -3.2594 H         1 <0>         0.1153
     55 H17        -5.2946   -3.7777   -1.4256 H         1 <0>         0.0878
     56 H18        -3.3896   -4.9337   -0.2255 H         1 <0>         0.1271
     57 H19        -3.5603   -3.2223    0.2413 H         1 <0>         0.0976
     58 H20        -3.9577   -4.4343   -3.7312 H         1 <0>         0.4085
     59 H21        -4.7773   -5.8133   -0.5318 H         1 <0>         0.1311
     60 H22        -4.4517   -8.1684    0.1039 H         1 <0>         0.1328
     61 H23        -2.4905   -8.9049   -3.6209 H         1 <0>         0.1391
     62 H24        -2.8239   -6.5527   -4.2630 H         1 <0>         0.1344
     63 H25        -5.8448  -10.2710   -0.9850 H         1 <0>         0.1405
     64 H26        -6.8951  -11.0566    1.0939 H         1 <0>         0.1469
     65 H27        -3.0194  -11.4516    2.8893 H         1 <0>         0.1421
     66 H28        -1.9804  -10.6739    0.8018 H         1 <0>         0.1432
     67 H29        -8.0828  -12.5958    5.2934 H         1 <0>         0.1899
     68 H30        -5.7287  -12.8353    6.4211 H         1 <0>         0.2214
     69 H31        -2.2380   -1.6183   -0.7132 H         1 <0>         0.4188
@<TRIPOS>BOND
     1    1    6 ar
     2    1    2 ar
     3    1   41 1
     4    2    3 ar
     5    2   42 1
     6    3    4 ar
     7    3   38 1
     8    4    5 ar
     9    4   43 1
    10    5    6 ar
    11    5   44 1
    12    6    7 1
    13    7    8 1
    14    7   45 1
    15    7   46 1
    16    8    9 1
    17    8   47 1
    18    8   48 1
    19    9   14 1
    20    9   10 1
    21    9   69 1
    22   10   11 1
    23   10   18 1
    24   10   12 1
    25   12   13 1
    26   12   49 1
    27   12   50 1
    28   13   14 1
    29   13   51 1
    30   13   52 1
    31   14   15 1
    32   14   16 1
    33   16   17 1
    34   16   53 1
    35   16   54 1
    36   17   18 1
    37   17   19 1
    38   17   55 1
    39   18   56 1
    40   18   57 1
    41   19   20 1
    42   19   58 1
    43   20   25 ar
    44   20   21 ar
    45   21   22 ar
    46   21   59 1
    47   22   23 ar
    48   22   60 1
    49   23   24 ar
    50   23   26 1
    51   24   25 ar
    52   24   61 1
    53   25   62 1
    54   26   27 1
    55   27   32 ar
    56   27   28 ar
    57   28   29 ar
    58   28   63 1
    59   29   30 ar
    60   29   64 1
    61   30   31 ar
    62   30   33 1
    63   31   32 ar
    64   31   65 1
    65   32   66 1
    66   33   37 1
    67   33   34 2
    68   34   35 1
    69   35   36 2
    70   35   67 1
    71   36   37 1
    72   36   68 1
    73   38   39 2
    74   38   40 1
@<TRIPOS>MOLECULE
CHEMBL119054
   42    44     0     0     0
SMALL
USER_CHARGES

@<TRIPOS>ATOM
      1 C1         -0.0167    1.3790    0.0096 C.ar      1 <0>        -0.1117
      2 C2          1.1686    2.0920    0.0021 C.ar      1 <0>        -0.1149
      3 C3          2.3774    1.4261   -0.0130 C.ar      1 <0>        -0.1098
      4 C4          2.4023    0.0328   -0.0207 C.ar      1 <0>        -0.0561
      5 C5          1.2051   -0.6804   -0.0131 C.ar      1 <0>        -0.1106
      6 C6          0.0021   -0.0041    0.0020 C.ar      1 <0>        -0.1155
      7 C7          3.6985   -0.6887   -0.0375 C.ar      1 <0>        -0.0573
      8 C8          4.8953    0.0258   -0.0397 C.ar      1 <0>        -0.0717
      9 C9          6.0987   -0.6476   -0.0549 C.ar      1 <0>        -0.1359
     10 C10         6.1189   -2.0357   -0.0683 C.ar      1 <0>         0.1099
     11 C11         4.9285   -2.7500   -0.0661 C.ar      1 <0>        -0.1973
     12 C12         3.7220   -2.0822   -0.0452 C.ar      1 <0>        -0.0723
     13 O1          7.3061   -2.6964   -0.0841 O.3       1 <0>        -0.3280
     14 C13         7.2537   -4.1244   -0.0974 C.3       1 <0>         0.0267
     15 C14         8.6764   -4.6868   -0.1141 C.3       1 <0>         0.0040
     16 N1          9.3570   -4.3345    1.1392 N.4       1 <0>        -0.3958
     17 C15         8.7479   -5.0698    2.2770 C.3       1 <0>        -0.0105
     18 C16         9.8656   -5.0516    3.3499 C.3       1 <0>        -0.1447
     19 C17        11.1529   -5.2223    2.5110 C.3       1 <0>        -0.1450
     20 C18        10.7708   -4.7662    1.0906 C.3       1 <0>        -0.0086
     21 H1         -0.9603    1.9042    0.0260 H         1 <0>         0.1270
     22 H2          1.1482    3.1718    0.0078 H         1 <0>         0.1279
     23 H3          3.3023    1.9837   -0.0192 H         1 <0>         0.1253
     24 H4          1.2186   -1.7603   -0.0194 H         1 <0>         0.1238
     25 H5         -0.9264   -0.5557    0.0083 H         1 <0>         0.1274
     26 H6          4.8802    1.1056   -0.0300 H         1 <0>         0.1392
     27 H7          7.0263   -0.0945   -0.0566 H         1 <0>         0.1354
     28 H8          4.9472   -3.8298   -0.0770 H         1 <0>         0.1292
     29 H9          2.7963   -2.6385   -0.0394 H         1 <0>         0.1342
     30 H10         6.7340   -4.4772    0.7934 H         1 <0>         0.0854
     31 H11         6.7198   -4.4601   -0.9864 H         1 <0>         0.1085
     32 H12         8.6372   -5.7715   -0.2137 H         1 <0>         0.1486
     33 H13         9.2243   -4.2641   -0.9563 H         1 <0>         0.1414
     34 H14         7.8594   -4.5520    2.6382 H         1 <0>         0.1333
     35 H15         8.5076   -6.0933    1.9891 H         1 <0>         0.1349
     36 H16         9.8747   -4.0999    3.8811 H         1 <0>         0.0984
     37 H17         9.7458   -5.8819    4.0458 H         1 <0>         0.1173
     38 H18        11.9497   -4.5937    2.9086 H         1 <0>         0.1057
     39 H19        11.4629   -6.2672    2.5022 H         1 <0>         0.1044
     40 H20        10.8820   -5.5953    0.3919 H         1 <0>         0.1314
     41 H21        11.4033   -3.9326    0.7855 H         1 <0>         0.1330
     42 H22         9.3023   -3.3395    1.2975 H         1 <0>         0.4336
@<TRIPOS>BOND
     1    1    6 ar
     2    1    2 ar
     3    1   21 1
     4    2    3 ar
     5    2   22 1
     6    3    4 ar
     7    3   23 1
     8    4    5 ar
     9    4    7 1
    10    5    6 ar
    11    5   24 1
    12    6   25 1
    13    7   12 ar
    14    7    8 ar
    15    8    9 ar
    16    8   26 1
    17    9   10 ar
    18    9   27 1
    19   10   11 ar
    20   10   13 1
    21   11   12 ar
    22   11   28 1
    23   12   29 1
    24   13   14 1
    25   14   15 1
    26   14   30 1
    27   14   31 1
    28   15   16 1
    29   15   32 1
    30   15   33 1
    31   16   20 1
    32   16   17 1
    33   16   42 1
    34   17   18 1
    35   17   34 1
    36   17   35 1
    37   18   19 1
    38   18   36 1
    39   18   37 1
    40   19   20 1
    41   19   38 1
    42   19   39 1
    43   20   40 1
    44   20   41 1
@<TRIPOS>MOLECULE
CHEMBL481489
   63    66     0     0     0
SMALL
USER_CHARGES

@<TRIPOS>ATOM
      1 C1         -0.5330    0.0222   -0.0643 C.3       1 <0>         0.0099
      2 N1         -0.0686   -1.3329    0.2612 N.3       1 <0>        -0.5170
      3 C2          0.8995   -1.3065    1.3658 C.3       1 <0>         0.0282
      4 C3          0.2108   -0.8511    2.6265 C.2       1 <0>         0.5125
      5 O1         -0.9702   -0.5756    2.6068 O.2       1 <0>        -0.4959
      6 N2          0.9073   -0.7499    3.7759 N.am      1 <0>        -0.6679
      7 C4          0.2376   -0.5025    4.9813 C.ar      1 <0>         0.1059
      8 C5          0.7710   -0.9603    6.1788 C.ar      1 <0>        -0.1066
      9 C6          0.1105   -0.7162    7.3665 C.ar      1 <0>        -0.1727
     10 C7         -1.0860   -0.0136    7.3636 C.ar      1 <0>         0.1129
     11 C8         -1.6194    0.4441    6.1673 C.ar      1 <0>        -0.1258
     12 C9         -0.9569    0.2055    4.9796 C.ar      1 <0>        -0.0911
     13 O2         -1.7361    0.2260    8.5332 O.3       1 <0>        -0.2580
     14 C10        -1.1096   -0.1088    9.6916 C.ar      1 <0>         0.0807
     15 C11        -0.1160    0.7116   10.2066 C.ar      1 <0>        -0.1317
     16 C12         0.5194    0.3689   11.3842 C.ar      1 <0>        -0.1053
     17 C13         0.1665   -0.7907   12.0496 C.ar      1 <0>        -0.1169
     18 C14        -0.8232   -1.6100   11.5385 C.ar      1 <0>        -0.1047
     19 C15        -1.4661   -1.2688   10.3645 C.ar      1 <0>        -0.1229
     20 C16         0.5002   -1.9928   -0.9216 C.3       1 <0>         0.0624
     21 C17        -0.5271   -2.0018   -2.0769 C.3       1 <0>        -0.1402
     22 C18        -0.3219   -3.4000   -2.7121 C.3       1 <0>        -0.0004
     23 N3         -0.0647   -4.2723   -1.5377 N.4       1 <0>        -0.3887
     24 C19         0.7817   -3.4768   -0.6222 C.3       1 <0>        -0.0071
     25 C20         0.6454   -5.4884   -1.9558 C.3       1 <0>         0.0567
     26 C21        -0.2556   -6.3201   -2.8320 C.ar      1 <0>        -0.1821
     27 C22        -1.0842   -7.2706   -2.2620 C.ar      1 <0>        -0.1085
     28 C23        -1.9110   -8.0357   -3.0577 C.ar      1 <0>        -0.0848
     29 C24        -1.9111   -7.8488   -4.4423 C.ar      1 <0>        -0.0895
     30 C25        -1.0722   -6.8869   -5.0107 C.ar      1 <0>        -0.0853
     31 C26        -0.2544   -6.1256   -4.2021 C.ar      1 <0>        -0.1101
     32 C27        -2.7925   -8.6637   -5.3002 C.2       1 <0>         0.5090
     33 O3         -3.5253   -9.5051   -4.7997 O.co2     1 <0>        -0.6721
     34 O4         -2.7902   -8.4977   -6.5118 O.co2     1 <0>        -0.6728
     35 H1          0.3262    0.6629   -0.2626 H         1 <0>         0.0332
     36 H2         -1.1705   -0.0146   -0.9477 H         1 <0>         0.0785
     37 H3         -1.0994    0.4237    0.7760 H         1 <0>         0.0991
     38 H4          1.3074   -2.3062    1.5154 H         1 <0>         0.1079
     39 H5          1.7080   -0.6167    1.1239 H         1 <0>         0.0776
     40 H6          1.8723   -0.8484    3.7686 H         1 <0>         0.4110
     41 H7          1.7021   -1.5075    6.1812 H         1 <0>         0.1293
     42 H8          0.5250   -1.0726    8.2979 H         1 <0>         0.1330
     43 H9         -2.5507    0.9909    6.1656 H         1 <0>         0.1377
     44 H10        -1.3699    0.5657    4.0489 H         1 <0>         0.1588
     45 H11         0.1605    1.6171    9.6869 H         1 <0>         0.1302
     46 H12         1.2928    1.0071   11.7855 H         1 <0>         0.1312
     47 H13         0.6650   -1.0572   12.9698 H         1 <0>         0.1298
     48 H14        -1.0967   -2.5154   12.0600 H         1 <0>         0.1326
     49 H15        -2.2421   -1.9067    9.9681 H         1 <0>         0.1324
     50 H16         1.4158   -1.4890   -1.2314 H         1 <0>         0.0862
     51 H17        -1.5415   -1.8982   -1.6919 H         1 <0>         0.1105
     52 H18        -0.3044   -1.2145   -2.7972 H         1 <0>         0.1151
     53 H19        -1.2213   -3.7191   -3.2387 H         1 <0>         0.1397
     54 H20         0.5370   -3.3954   -3.3832 H         1 <0>         0.1323
     55 H21         1.8336   -3.6988   -0.8019 H         1 <0>         0.1327
     56 H22         0.5234   -3.7024    0.4125 H         1 <0>         0.1351
     57 H23         1.5407   -5.2129   -2.5131 H         1 <0>         0.1289
     58 H24         0.9286   -6.0648   -1.0751 H         1 <0>         0.1295
     59 H25        -1.0830   -7.4140   -1.1916 H         1 <0>         0.1215
     60 H26        -2.5567   -8.7777   -2.6116 H         1 <0>         0.1382
     61 H27        -1.0671   -6.7371   -6.0803 H         1 <0>         0.1380
     62 H28         0.3914   -5.3786   -4.6396 H         1 <0>         0.1201
     63 H29        -0.9343   -4.5134   -1.0863 H         1 <0>         0.4298
@<TRIPOS>BOND
     1    1    2 1
     2    1   35 1
     3    1   36 1
     4    1   37 1
     5    2    3 1
     6    2   20 1
     7    3    4 1
     8    3   38 1
     9    3   39 1
    10    4    5 2
    11    4    6 am
    12    6    7 1
    13    6   40 1
    14    7   12 ar
    15    7    8 ar
    16    8    9 ar
    17    8   41 1
    18    9   10 ar
    19    9   42 1
    20   10   11 ar
    21   10   13 1
    22   11   12 ar
    23   11   43 1
    24   12   44 1
    25   13   14 1
    26   14   19 ar
    27   14   15 ar
    28   15   16 ar
    29   15   45 1
    30   16   17 ar
    31   16   46 1
    32   17   18 ar
    33   17   47 1
    34   18   19 ar
    35   18   48 1
    36   19   49 1
    37   20   24 1
    38   20   21 1
    39   20   50 1
    40   21   22 1
    41   21   51 1
    42   21   52 1
    43   22   23 1
    44   22   53 1
    45   22   54 1
    46   23   24 1
    47   23   25 1
    48   23   63 1
    49   24   55 1
    50   24   56 1
    51   25   26 1
    52   25   57 1
    53   25   58 1
    54   26   31 ar
    55   26   27 ar
    56   27   28 ar
    57   27   59 1
    58   28   29 ar
    59   28   60 1
    60   29   30 ar
    61   29   32 1
    62   30   31 ar
    63   30   61 1
    64   31   62 1
    65   32   33 2
    66   32   34 1
@<TRIPOS>MOLECULE
CHEMBL481489__1
   63    66     0     0     0
SMALL
USER_CHARGES

@<TRIPOS>ATOM
      1 C1          1.0792    0.8127    0.4242 C.3       1 <0>         0.0050
      2 N1          0.4185   -0.4812    0.2070 N.3       1 <0>        -0.5085
      3 C2          0.5855   -1.3598    1.3724 C.3       1 <0>         0.0335
      4 C3         -0.1491   -0.7755    2.5513 C.2       1 <0>         0.5145
      5 O1         -0.7525    0.2700    2.4325 O.2       1 <0>        -0.4986
      6 N2         -0.1357   -1.4147    3.7378 N.am      1 <0>        -0.6665
      7 C4         -0.6715   -0.7942    4.8739 C.ar      1 <0>         0.1073
      8 C5         -0.2051   -1.1351    6.1365 C.ar      1 <0>        -0.1082
      9 C6         -0.7336   -0.5232    7.2558 C.ar      1 <0>        -0.1715
     10 C7         -1.7306    0.4321    7.1191 C.ar      1 <0>         0.1107
     11 C8         -2.1970    0.7731    5.8576 C.ar      1 <0>        -0.1255
     12 C9         -1.6652    0.1660    4.7372 C.ar      1 <0>        -0.0956
     13 O2         -2.2509    1.0338    8.2215 O.3       1 <0>        -0.2583
     14 C10        -1.6445    0.8098    9.4167 C.ar      1 <0>         0.0815
     15 C11        -0.4601    1.4621    9.7282 C.ar      1 <0>        -0.1327
     16 C12         0.1544    1.2325   10.9439 C.ar      1 <0>        -0.1051
     17 C13        -0.4096    0.3532   11.8498 C.ar      1 <0>        -0.1174
     18 C14        -1.5897   -0.2982   11.5418 C.ar      1 <0>        -0.1045
     19 C15        -2.2115   -0.0675   10.3301 C.ar      1 <0>        -0.1230
     20 C16         0.9153   -1.1275   -1.0151 C.3       1 <0>         0.0612
     21 C17         0.0431   -2.3504   -1.3806 C.3       1 <0>        -0.1414
     22 C18        -0.0882   -2.3067   -2.9143 C.3       1 <0>        -0.0030
     23 N3          0.6933   -1.1421   -3.3837 N.4       1 <0>        -0.3900
     24 C19         0.7361   -0.1956   -2.2398 C.3       1 <0>        -0.0003
     25 C20         0.0283   -0.5163   -4.5344 C.3       1 <0>         0.0577
     26 C21         0.0545   -1.4637   -5.7061 C.ar      1 <0>        -0.1818
     27 C22         1.1179   -1.4350   -6.5911 C.ar      1 <0>        -0.1094
     28 C23         1.1484   -2.2987   -7.6659 C.ar      1 <0>        -0.0852
     29 C24         0.1025   -3.2046   -7.8597 C.ar      1 <0>        -0.0898
     30 C25        -0.9677   -3.2282   -6.9617 C.ar      1 <0>        -0.0849
     31 C26        -0.9822   -2.3621   -5.8885 C.ar      1 <0>        -0.1094
     32 C27         0.1277   -4.1315   -9.0073 C.2       1 <0>         0.5091
     33 O3          1.0656   -4.1080   -9.7917 O.co2     1 <0>        -0.6725
     34 O4         -0.7893   -4.9232   -9.1741 O.co2     1 <0>        -0.6725
     35 H1          2.1444    0.6532    0.5917 H         1 <0>         0.0328
     36 H2          0.9400    1.4437   -0.4537 H         1 <0>         0.0738
     37 H3          0.6435    1.3014    1.2956 H         1 <0>         0.1010
     38 H4          0.1811   -2.3461    1.1447 H         1 <0>         0.1132
     39 H5          1.6452   -1.4480    1.6119 H         1 <0>         0.0773
     40 H6          0.2450   -2.3043    3.8052 H         1 <0>         0.4120
     41 H7          0.5706   -1.8789    6.2431 H         1 <0>         0.1294
     42 H8         -0.3712   -0.7886    8.2380 H         1 <0>         0.1328
     43 H9         -2.9730    1.5167    5.7517 H         1 <0>         0.1374
     44 H10        -2.0251    0.4348    3.7551 H         1 <0>         0.1637
     45 H11        -0.0188    2.1485    9.0207 H         1 <0>         0.1297
     46 H12         1.0762    1.7400   11.1869 H         1 <0>         0.1309
     47 H13         0.0728    0.1745   12.7994 H         1 <0>         0.1297
     48 H14        -2.0279   -0.9848   12.2510 H         1 <0>         0.1326
     49 H15        -3.1356   -0.5731   10.0919 H         1 <0>         0.1326
     50 H16         1.9601   -1.4161   -0.8996 H         1 <0>         0.0804
     51 H17         0.5343   -3.2722   -1.0690 H         1 <0>         0.1026
     52 H18        -0.9387   -2.2677   -0.9143 H         1 <0>         0.1140
     53 H19         0.3136   -3.2226   -3.3476 H         1 <0>         0.1334
     54 H20        -1.1351   -2.1886   -3.1942 H         1 <0>         0.1323
     55 H21        -0.1980    0.3613   -2.1661 H         1 <0>         0.1445
     56 H22         1.5836    0.4834   -2.3339 H         1 <0>         0.1335
     57 H23        -1.0054   -0.2866   -4.2759 H         1 <0>         0.1308
     58 H24         0.5496    0.4036   -4.7992 H         1 <0>         0.1306
     59 H25         1.9257   -0.7342   -6.4401 H         1 <0>         0.1213
     60 H26         1.9786   -2.2747   -8.3563 H         1 <0>         0.1380
     61 H27        -1.7795   -3.9258   -7.1054 H         1 <0>         0.1381
     62 H28        -1.8066   -2.3822   -5.1911 H         1 <0>         0.1206
     63 H29         1.6280   -1.4283   -3.6337 H         1 <0>         0.4258
@<TRIPOS>BOND
     1    1    2 1
     2    1   35 1
     3    1   36 1
     4    1   37 1
     5    2    3 1
     6    2   20 1
     7    3    4 1
     8    3   38 1
     9    3   39 1
    10    4    5 2
    11    4    6 am
    12    6    7 1
    13    6   40 1
    14    7   12 ar
    15    7    8 ar
    16    8    9 ar
    17    8   41 1
    18    9   10 ar
    19    9   42 1
    20   10   11 ar
    21   10   13 1
    22   11   12 ar
    23   11   43 1
    24   12   44 1
    25   13   14 1
    26   14   19 ar
    27   14   15 ar
    28   15   16 ar
    29   15   45 1
    30   16   17 ar
    31   16   46 1
    32   17   18 ar
    33   17   47 1
    34   18   19 ar
    35   18   48 1
    36   19   49 1
    37   20   24 1
    38   20   21 1
    39   20   50 1
    40   21   22 1
    41   21   51 1
    42   21   52 1
    43   22   23 1
    44   22   53 1
    45   22   54 1
    46   23   24 1
    47   23   25 1
    48   23   63 1
    49   24   55 1
    50   24   56 1
    51   25   26 1
    52   25   57 1
    53   25   58 1
    54   26   31 ar
    55   26   27 ar
    56   27   28 ar
    57   27   59 1
    58   28   29 ar
    59   28   60 1
    60   29   30 ar
    61   29   32 1
    62   30   31 ar
    63   30   61 1
    64   31   62 1
    65   32   33 2
    66   32   34 1
@<TRIPOS>MOLECULE
CHEMBL481671
   66    71     0     0     0
SMALL
USER_CHARGES

@<TRIPOS>ATOM
      1 C1         -1.0620    2.7874    0.7685 C.ar      1 <0>        -0.1133
      2 C2         -0.0574    3.7243    0.8917 C.ar      1 <0>        -0.0835
      3 C3          1.2428    3.3134    1.1961 C.ar      1 <0>        -0.0914
      4 C4          1.5154    1.9545    1.3735 C.ar      1 <0>        -0.0840
      5 C5          0.5007    1.0289    1.2472 C.ar      1 <0>        -0.1106
      6 C6         -0.7847    1.4432    0.9455 C.ar      1 <0>        -0.1767
      7 C7         -1.8880    0.4257    0.8096 C.3       1 <0>         0.0565
      8 N1         -1.9687   -0.0256   -0.5860 N.4       1 <0>        -0.3905
      9 C8         -2.5108    1.0530   -1.4546 C.3       1 <0>         0.0372
     10 H1         -2.0577    2.0211   -1.2414 H         1 <0>         0.1487
     11 C9         -4.0302    1.0430   -1.1691 C.3       1 <0>        -0.1676
     12 C10        -4.3326   -0.3913   -0.6878 C.3       1 <0>        -0.1398
     13 C11        -2.9683   -1.1178   -0.7262 C.3       1 <0>         0.0334
     14 H2         -2.8766   -1.8646    0.0624 H         1 <0>         0.1475
     15 C12        -2.7942   -1.7171   -2.1309 C.3       1 <0>        -0.1460
     16 C13        -3.1358   -0.6474   -3.1721 C.3       1 <0>         0.1521
     17 C14        -2.2893    0.6185   -2.9123 C.3       1 <0>        -0.1740
     18 N2         -4.5602   -0.3169   -3.0820 N.pl3     1 <0>        -0.7575
     19 C15        -5.0485    0.8452   -3.6893 C.ar      1 <0>         0.1658
     20 C16        -4.3216    1.4582   -4.7014 C.ar      1 <0>        -0.1512
     21 C17        -4.8044    2.6048   -5.3006 C.ar      1 <0>        -0.1478
     22 C18        -6.0154    3.1444   -4.8917 C.ar      1 <0>         0.0856
     23 C19        -6.7419    2.5328   -3.8804 C.ar      1 <0>        -0.0963
     24 C20        -6.2631    1.3829   -3.2842 C.ar      1 <0>        -0.1478
     25 O1         -6.4902    4.2735   -5.4822 O.3       1 <0>        -0.2554
     26 C21        -5.8138    4.7664   -6.5517 C.ar      1 <0>         0.1052
     27 C22        -5.8168    4.0704   -7.7541 C.ar      1 <0>        -0.1404
     28 C23        -5.1313    4.5670   -8.8415 C.ar      1 <0>        -0.0544
     29 C24        -4.4335    5.7718   -8.7338 C.ar      1 <0>        -0.0173
     30 C25        -4.4333    6.4687   -7.5237 C.ar      1 <0>        -0.0704
     31 C26        -5.1254    5.9681   -6.4423 C.ar      1 <0>        -0.1207
     32 C27        -3.6969    6.3075   -9.8971 C.2       1 <0>         0.2252
     33 N3         -3.6270    5.7498  -11.0833 N.2       1 <0>        -0.4687
     34 C28        -2.8725    6.5247  -11.8778 C.2       1 <0>        -0.0392
     35 C29        -2.4699    7.5862  -11.1565 C.2       1 <0>        -0.0634
     36 O2         -2.9904    7.4511   -9.9202 O.3       1 <0>        -0.1956
     37 C30         2.3230    4.3095    1.3291 C.2       1 <0>         0.5097
     38 O3          2.0812    5.4981    1.1728 O.co2     1 <0>        -0.6729
     39 O4          3.4600    3.9467    1.5956 O.co2     1 <0>        -0.6728
     40 H3         -2.0685    3.1039    0.5376 H         1 <0>         0.1198
     41 H4         -0.2752    4.7729    0.7529 H         1 <0>         0.1377
     42 H5          2.5182    1.6298    1.6087 H         1 <0>         0.1379
     43 H6          0.7100   -0.0218    1.3837 H         1 <0>         0.1208
     44 H7         -1.6777   -0.4267    1.4555 H         1 <0>         0.1269
     45 H8         -2.8364    0.8771    1.1009 H         1 <0>         0.1273
     46 H9         -4.2744    1.7642   -0.3892 H         1 <0>         0.0818
     47 H10        -4.5886    1.2634   -2.0790 H         1 <0>         0.1501
     48 H11        -4.7253   -0.3754    0.3289 H         1 <0>         0.0881
     49 H12        -5.0396   -0.8762   -1.3609 H         1 <0>         0.1153
     50 H13        -1.7618   -2.0402   -2.2646 H         1 <0>         0.1022
     51 H14        -3.4635   -2.5692   -2.2498 H         1 <0>         0.1143
     52 H15        -2.9152   -1.0285   -4.1692 H         1 <0>         0.0877
     53 H16        -2.6110    1.4148   -3.5835 H         1 <0>         0.1263
     54 H17        -1.2321    0.4075   -3.0737 H         1 <0>         0.0983
     55 H18        -5.1647   -0.9037   -2.6013 H         1 <0>         0.4074
     56 H19        -3.3787    1.0384   -5.0195 H         1 <0>         0.1318
     57 H20        -4.2391    3.0819   -6.0875 H         1 <0>         0.1331
     58 H21        -7.6844    2.9536   -3.5624 H         1 <0>         0.1381
     59 H22        -6.8309    0.9044   -2.4999 H         1 <0>         0.1334
     60 H23        -6.3567    3.1387   -7.8366 H         1 <0>         0.1401
     61 H24        -5.1335    4.0250   -9.7756 H         1 <0>         0.1466
     62 H25        -3.8944    7.4006   -7.4365 H         1 <0>         0.1425
     63 H26        -5.1294    6.5087   -5.5074 H         1 <0>         0.1435
     64 H27        -2.6311    6.3304  -12.9124 H         1 <0>         0.1896
     65 H28        -1.8481    8.3979  -11.5042 H         1 <0>         0.2213
     66 H29        -1.0638   -0.3279   -0.9143 H         1 <0>         0.4204
@<TRIPOS>BOND
     1    1    6 ar
     2    1    2 ar
     3    1   40 1
     4    2    3 ar
     5    2   41 1
     6    3    4 ar
     7    3   37 1
     8    4    5 ar
     9    4   42 1
    10    5    6 ar
    11    5   43 1
    12    6    7 1
    13    7    8 1
    14    7   44 1
    15    7   45 1
    16    8   13 1
    17    8    9 1
    18    8   66 1
    19    9   10 1
    20    9   17 1
    21    9   11 1
    22   11   12 1
    23   11   46 1
    24   11   47 1
    25   12   13 1
    26   12   48 1
    27   12   49 1
    28   13   14 1
    29   13   15 1
    30   15   16 1
    31   15   50 1
    32   15   51 1
    33   16   17 1
    34   16   18 1
    35   16   52 1
    36   17   53 1
    37   17   54 1
    38   18   19 1
    39   18   55 1
    40   19   24 ar
    41   19   20 ar
    42   20   21 ar
    43   20   56 1
    44   21   22 ar
    45   21   57 1
    46   22   23 ar
    47   22   25 1
    48   23   24 ar
    49   23   58 1
    50   24   59 1
    51   25   26 1
    52   26   31 ar
    53   26   27 ar
    54   27   28 ar
    55   27   60 1
    56   28   29 ar
    57   28   61 1
    58   29   30 ar
    59   29   32 1
    60   30   31 ar
    61   30   62 1
    62   31   63 1
    63   32   36 1
    64   32   33 2
    65   33   34 1
    66   34   35 2
    67   34   64 1
    68   35   36 1
    69   35   65 1
    70   37   38 2
    71   37   39 1
@<TRIPOS>MOLECULE
CHEMBL480145
   66    69     0     0     0
SMALL
USER_CHARGES

@<TRIPOS>ATOM
      1 C1          1.0792    0.8127    0.4242 C.3       1 <0>         0.0025
      2 N1          0.4185   -0.4812    0.2070 N.3       1 <0>        -0.5089
      3 C2          0.5855   -1.3598    1.3724 C.3       1 <0>         0.0341
      4 C3         -0.1491   -0.7755    2.5513 C.2       1 <0>         0.5122
      5 O1         -0.7525    0.2700    2.4325 O.2       1 <0>        -0.4958
      6 N2         -0.1357   -1.4147    3.7378 N.am      1 <0>        -0.6681
      7 C4         -0.6715   -0.7942    4.8739 C.ar      1 <0>         0.1084
      8 C5         -0.2051   -1.1351    6.1365 C.ar      1 <0>        -0.1095
      9 C6         -0.7336   -0.5232    7.2558 C.ar      1 <0>        -0.1718
     10 C7         -1.7306    0.4321    7.1191 C.ar      1 <0>         0.1099
     11 C8         -2.1970    0.7731    5.8576 C.ar      1 <0>        -0.1247
     12 C9         -1.6652    0.1660    4.7372 C.ar      1 <0>        -0.0958
     13 O2         -2.2509    1.0338    8.2215 O.3       1 <0>        -0.2584
     14 C10        -1.6445    0.8098    9.4167 C.ar      1 <0>         0.0822
     15 C11        -0.4601    1.4621    9.7282 C.ar      1 <0>        -0.1327
     16 C12         0.1544    1.2325   10.9439 C.ar      1 <0>        -0.1051
     17 C13        -0.4096    0.3532   11.8498 C.ar      1 <0>        -0.1178
     18 C14        -1.5897   -0.2982   11.5418 C.ar      1 <0>        -0.1048
     19 C15        -2.2115   -0.0675   10.3301 C.ar      1 <0>        -0.1232
     20 C16         0.9153   -1.1275   -1.0151 C.3       1 <0>         0.0763
     21 C17         2.4297   -1.3291   -0.9083 C.3       1 <0>        -0.1883
     22 C18         2.9522   -1.9293   -2.2153 C.3       1 <0>         0.0009
     23 N3          2.6554   -1.0201   -3.3287 N.4       1 <0>        -0.3827
     24 C19         1.2025   -0.8785   -3.4824 C.3       1 <0>        -0.0107
     25 C20         0.6127   -0.2378   -2.2242 C.3       1 <0>        -0.1397
     26 C21         3.2269   -1.5632   -4.5682 C.3       1 <0>         0.0528
     27 C22         3.0303   -0.5737   -5.6877 C.ar      1 <0>        -0.1826
     28 C23         1.8828   -0.6261   -6.4594 C.ar      1 <0>        -0.1129
     29 C24         1.6963    0.2759   -7.4860 C.ar      1 <0>        -0.0841
     30 C25         2.6692    1.2445   -7.7456 C.ar      1 <0>        -0.0890
     31 C26         3.8250    1.2917   -6.9620 C.ar      1 <0>        -0.0843
     32 C27         3.9955    0.3865   -5.9354 C.ar      1 <0>        -0.1090
     33 C28         2.4772    2.2126   -8.8422 C.2       1 <0>         0.5089
     34 O3          1.4646    2.1684   -9.5265 O.co2     1 <0>        -0.6720
     35 O4          3.3306    3.0592   -9.0669 O.co2     1 <0>        -0.6721
     36 H1          2.1444    0.6532    0.5917 H         1 <0>         0.0285
     37 H2          0.9400    1.4437   -0.4537 H         1 <0>         0.0773
     38 H3          0.6435    1.3014    1.2956 H         1 <0>         0.0966
     39 H4          0.1811   -2.3461    1.1447 H         1 <0>         0.1109
     40 H5          1.6452   -1.4480    1.6119 H         1 <0>         0.0718
     41 H6          0.2450   -2.3043    3.8052 H         1 <0>         0.4107
     42 H7          0.5706   -1.8789    6.2431 H         1 <0>         0.1287
     43 H8         -0.3712   -0.7886    8.2380 H         1 <0>         0.1323
     44 H9         -2.9730    1.5167    5.7517 H         1 <0>         0.1376
     45 H10        -2.0251    0.4348    3.7551 H         1 <0>         0.1641
     46 H11        -0.0188    2.1485    9.0207 H         1 <0>         0.1298
     47 H12         1.0762    1.7400   11.1869 H         1 <0>         0.1308
     48 H13         0.0728    0.1745   12.7994 H         1 <0>         0.1295
     49 H14        -2.0279   -0.9848   12.2510 H         1 <0>         0.1323
     50 H15        -3.1356   -0.5731   10.0919 H         1 <0>         0.1325
     51 H16         0.4259   -2.0932   -1.1415 H         1 <0>         0.1020
     52 H17         2.9131   -0.3685   -0.7301 H         1 <0>         0.0926
     53 H18         2.6494   -2.0065   -0.0832 H         1 <0>         0.1080
     54 H19         4.0300   -2.0744   -2.1426 H         1 <0>         0.1282
     55 H20         2.4684   -2.8899   -2.3924 H         1 <0>         0.1280
     56 H21         0.9887   -0.2477   -4.3452 H         1 <0>         0.1408
     57 H22         0.7560   -1.8614   -3.6325 H         1 <0>         0.1279
     58 H23        -0.4663   -0.1352   -2.3396 H         1 <0>         0.1211
     59 H24         1.0584    0.7454   -2.0733 H         1 <0>         0.0911
     60 H25         4.2922   -1.7458   -4.4276 H         1 <0>         0.1306
     61 H26         2.7277   -2.4992   -4.8187 H         1 <0>         0.1299
     62 H27         1.1316   -1.3754   -6.2576 H         1 <0>         0.1221
     63 H28         0.8006    0.2334   -8.0879 H         1 <0>         0.1388
     64 H29         4.5812    2.0377   -7.1570 H         1 <0>         0.1384
     65 H30         4.8864    0.4245   -5.3261 H         1 <0>         0.1213
     66 H31         3.0624   -0.1161   -3.1409 H         1 <0>         0.4217
@<TRIPOS>BOND
     1    1    2 1
     2    1   36 1
     3    1   37 1
     4    1   38 1
     5    2    3 1
     6    2   20 1
     7    3    4 1
     8    3   39 1
     9    3   40 1
    10    4    5 2
    11    4    6 am
    12    6    7 1
    13    6   41 1
    14    7   12 ar
    15    7    8 ar
    16    8    9 ar
    17    8   42 1
    18    9   10 ar
    19    9   43 1
    20   10   11 ar
    21   10   13 1
    22   11   12 ar
    23   11   44 1
    24   12   45 1
    25   13   14 1
    26   14   19 ar
    27   14   15 ar
    28   15   16 ar
    29   15   46 1
    30   16   17 ar
    31   16   47 1
    32   17   18 ar
    33   17   48 1
    34   18   19 ar
    35   18   49 1
    36   19   50 1
    37   20   25 1
    38   20   21 1
    39   20   51 1
    40   21   22 1
    41   21   52 1
    42   21   53 1
    43   22   23 1
    44   22   54 1
    45   22   55 1
    46   23   24 1
    47   23   26 1
    48   23   66 1
    49   24   25 1
    50   24   56 1
    51   24   57 1
    52   25   58 1
    53   25   59 1
    54   26   27 1
    55   26   60 1
    56   26   61 1
    57   27   32 ar
    58   27   28 ar
    59   28   29 ar
    60   28   62 1
    61   29   30 ar
    62   29   63 1
    63   30   31 ar
    64   30   33 1
    65   31   32 ar
    66   31   64 1
    67   32   65 1
    68   33   34 2
    69   33   35 1
@<TRIPOS>MOLECULE
CHEMBL480335
   61    65     0     0     0
SMALL
USER_CHARGES

@<TRIPOS>ATOM
      1 C1         -0.0167    1.3786    0.0096 C.ar      1 <0>        -0.0617
      2 C2          1.1689    2.0869    0.0021 C.ar      1 <0>        -0.1843
      3 C3          2.3811    1.4088   -0.0131 C.ar      1 <0>         0.2085
      4 C4          2.3964    0.0198   -0.0206 C.ar      1 <0>        -0.1958
      5 C5          1.2071   -0.6823   -0.0130 C.ar      1 <0>        -0.0647
      6 C6          0.0021   -0.0041    0.0020 C.ar      1 <0>        -0.1277
      7 C7         -1.2936   -0.7736    0.0107 C.3       1 <0>        -0.0394
      8 C8         -1.7396   -1.0224   -1.4071 C.ar      1 <0>        -0.0315
      9 C9         -2.5531   -0.1128   -2.0653 C.ar      1 <0>        -0.1699
     10 C10        -2.9420   -0.3748   -3.3653 C.ar      1 <0>         0.1018
     11 N1         -2.5489   -1.4741   -3.9785 N.ar      1 <0>        -0.4885
     12 C11        -1.7753   -2.3611   -3.3837 C.ar      1 <0>         0.1009
     13 C12        -1.3415   -2.1637   -2.0864 C.ar      1 <0>        -0.1708
     14 N2          3.5820    2.1220   -0.0212 N.pl3     1 <0>        -0.7444
     15 C13         4.8596    1.4052   -0.0372 C.3       1 <0>         0.1447
     16 C14         5.2530    1.0332    1.3953 C.3       1 <0>        -0.1614
     17 C15         6.6604    0.4156    1.3805 C.3       1 <0>         0.0352
     18 H1          6.9403    0.0082    2.3520 H         1 <0>         0.1496
     19 C16         6.6953   -0.6550    0.2656 C.3       1 <0>        -0.1403
     20 C17         7.1116    0.1126   -1.0064 C.3       1 <0>        -0.1419
     21 C18         7.2905    1.5772   -0.5445 C.3       1 <0>         0.0415
     22 H2          8.0787    2.0899   -1.0959 H         1 <0>         0.1567
     23 C19         5.9383    2.3004   -0.6535 C.3       1 <0>        -0.1522
     24 N3          7.6007    1.4724    0.9214 N.4       1 <0>        -0.3957
     25 C20         8.9928    1.0507    1.1263 C.3       1 <0>         0.0558
     26 C21         9.9190    2.1844    0.7683 C.ar      1 <0>        -0.1780
     27 C22        10.3844    2.3099   -0.5288 C.ar      1 <0>        -0.1147
     28 C23        11.2326    3.3447   -0.8636 C.ar      1 <0>        -0.0835
     29 C24        11.6214    4.2677    0.1106 C.ar      1 <0>        -0.0907
     30 C25        11.1471    4.1349    1.4181 C.ar      1 <0>        -0.0834
     31 C26        10.2954    3.0981    1.7371 C.ar      1 <0>        -0.1102
     32 C27        12.5289    5.3770   -0.2396 C.2       1 <0>         0.5091
     33 O1         12.9426    5.4903   -1.3849 O.co2     1 <0>        -0.6725
     34 O2         12.8674    6.1833    0.6153 O.co2     1 <0>        -0.6722
     35 H3         -0.9595    1.9052    0.0260 H         1 <0>         0.1235
     36 H4          1.1535    3.1668    0.0077 H         1 <0>         0.1224
     37 H5          3.3371   -0.5105   -0.0328 H         1 <0>         0.1172
     38 H6          1.2182   -1.7622   -0.0189 H         1 <0>         0.1216
     39 H7         -1.1466   -1.7270    0.5180 H         1 <0>         0.0851
     40 H8         -2.0553   -0.1966    0.5352 H         1 <0>         0.0857
     41 H9         -2.8789    0.7890   -1.5682 H         1 <0>         0.1332
     42 H10        -3.5756    0.3288   -3.8850 H         1 <0>         0.1558
     43 H11        -1.4739   -3.2500   -3.9179 H         1 <0>         0.1552
     44 H12        -0.7040   -2.8914   -1.6063 H         1 <0>         0.1323
     45 H13         3.5702    3.0919   -0.0162 H         1 <0>         0.4040
     46 H14         4.7585    0.4973   -0.6319 H         1 <0>         0.0994
     47 H15         5.2535    1.9280    2.0178 H         1 <0>         0.0907
     48 H16         4.5411    0.3100    1.7933 H         1 <0>         0.1123
     49 H17         7.4301   -1.4247    0.5017 H         1 <0>         0.1002
     50 H18         5.7084   -1.0988    0.1349 H         1 <0>         0.1085
     51 H19         8.0509   -0.2798   -1.3959 H         1 <0>         0.1017
     52 H20         6.3293    0.0463   -1.7626 H         1 <0>         0.1114
     53 H21         5.7115    2.4740   -1.7055 H         1 <0>         0.1162
     54 H22         5.9697    3.2522   -0.1232 H         1 <0>         0.0958
     55 H23         9.1397    0.7777    2.1712 H         1 <0>         0.1288
     56 H24         9.2091    0.1909    0.4922 H         1 <0>         0.1288
     57 H25        10.0830    1.5957   -1.2808 H         1 <0>         0.1204
     58 H26        11.5956    3.4411   -1.8762 H         1 <0>         0.1383
     59 H27        11.4436    4.8447    2.1762 H         1 <0>         0.1382
     60 H28         9.9245    2.9967    2.7463 H         1 <0>         0.1211
     61 H29         7.4174    2.3426    1.3982 H         1 <0>         0.4242
@<TRIPOS>BOND
     1    1    6 ar
     2    1    2 ar
     3    1   35 1
     4    2    3 ar
     5    2   36 1
     6    3    4 ar
     7    3   14 1
     8    4    5 ar
     9    4   37 1
    10    5    6 ar
    11    5   38 1
    12    6    7 1
    13    7    8 1
    14    7   39 1
    15    7   40 1
    16    8   13 ar
    17    8    9 ar
    18    9   10 ar
    19    9   41 1
    20   10   11 ar
    21   10   42 1
    22   11   12 ar
    23   12   13 ar
    24   12   43 1
    25   13   44 1
    26   14   15 1
    27   14   45 1
    28   15   23 1
    29   15   16 1
    30   15   46 1
    31   16   17 1
    32   16   47 1
    33   16   48 1
    34   17   18 1
    35   17   24 1
    36   17   19 1
    37   19   20 1
    38   19   49 1
    39   19   50 1
    40   20   21 1
    41   20   51 1
    42   20   52 1
    43   21   22 1
    44   21   23 1
    45   21   24 1
    46   23   53 1
    47   23   54 1
    48   24   25 1
    49   24   61 1
    50   25   26 1
    51   25   55 1
    52   25   56 1
    53   26   31 ar
    54   26   27 ar
    55   27   28 ar
    56   27   57 1
    57   28   29 ar
    58   28   58 1
    59   29   30 ar
    60   29   32 1
    61   30   31 ar
    62   30   59 1
    63   31   60 1
    64   32   33 2
    65   32   34 1
@<TRIPOS>MOLECULE
CHEMBL279643
   39    41     0     0     0
SMALL
USER_CHARGES

@<TRIPOS>ATOM
      1 C1         -0.0167    1.3781    0.0096 C.ar      1 <0>        -0.1240
      2 C2          1.1709    2.0855    0.0021 C.ar      1 <0>        -0.1177
      3 C3          2.3773    1.4107   -0.0130 C.ar      1 <0>        -0.1152
      4 C4          2.3960    0.0285   -0.0201 C.ar      1 <0>        -0.0773
      5 C5          1.2084   -0.6789   -0.0117 C.ar      1 <0>        -0.1157
      6 C6          0.0021   -0.0041    0.0020 C.ar      1 <0>        -0.1179
      7 C7          3.7112   -0.7071   -0.0376 C.3       1 <0>        -0.0394
      8 C8          4.1644   -0.9594    1.3773 C.ar      1 <0>        -0.1095
      9 C9          4.9522   -0.0267    2.0264 C.ar      1 <0>        -0.0734
     10 C10         5.3694   -0.2559    3.3232 C.ar      1 <0>        -0.1450
     11 C11         4.9969   -1.4228    3.9745 C.ar      1 <0>         0.1248
     12 C12         4.2060   -2.3568    3.3213 C.ar      1 <0>        -0.2033
     13 C13         3.7871   -2.1206    2.0262 C.ar      1 <0>        -0.0727
     14 O1          5.4064   -1.6507    5.2502 O.3       1 <0>        -0.3125
     15 C14         4.9849   -2.8733    5.8582 C.3       1 <0>         0.0465
     16 C15         5.5391   -2.9523    7.2821 C.3       1 <0>         0.1089
     17 N1          5.1069   -4.2057    7.9054 N.pl3     1 <0>        -0.4601
     18 C16         3.9599   -4.4011    8.6263 C.2       1 <0>        -0.0568
     19 C17         3.9569   -5.6914    9.0117 C.2       1 <0>        -0.0253
     20 N2          5.0718   -6.2682    8.5391 N.2       1 <0>        -0.4916
     21 C18         5.7630   -5.3856    7.8711 C.2       1 <0>         0.1844
     22 H1         -0.9591    1.9053    0.0259 H         1 <0>         0.1211
     23 H2          1.1563    3.1654    0.0076 H         1 <0>         0.1219
     24 H3          3.3051    1.9634   -0.0196 H         1 <0>         0.1208
     25 H4          1.2231   -1.7588   -0.0176 H         1 <0>         0.1198
     26 H5         -0.9258   -0.5567    0.0082 H         1 <0>         0.1216
     27 H6          3.5884   -1.6586   -0.5549 H         1 <0>         0.0822
     28 H7          4.4573   -0.1052   -0.5563 H         1 <0>         0.0833
     29 H8          5.2420    0.8815    1.5189 H         1 <0>         0.1301
     30 H9          5.9853    0.4726    3.8295 H         1 <0>         0.1323
     31 H10         3.9147   -3.2660    3.8262 H         1 <0>         0.1262
     32 H11         3.1678   -2.8454    1.5188 H         1 <0>         0.1249
     33 H12         3.8958   -2.9068    5.8898 H         1 <0>         0.0701
     34 H13         5.3576   -3.7160    5.2759 H         1 <0>         0.0711
     35 H14         6.6281   -2.9189    7.2505 H         1 <0>         0.1080
     36 H15         5.1664   -2.1096    7.8643 H         1 <0>         0.1053
     37 H16         3.2029   -3.6623    8.8444 H         1 <0>         0.1759
     38 H17         3.1911   -6.1767    9.5986 H         1 <0>         0.1720
     39 H18         6.7050   -5.5679    7.3753 H         1 <0>         0.2062
@<TRIPOS>BOND
     1    1    6 ar
     2    1    2 ar
     3    1   22 1
     4    2    3 ar
     5    2   23 1
     6    3    4 ar
     7    3   24 1
     8    4    5 ar
     9    4    7 1
    10    5    6 ar
    11    5   25 1
    12    6   26 1
    13    7    8 1
    14    7   27 1
    15    7   28 1
    16    8   13 ar
    17    8    9 ar
    18    9   10 ar
    19    9   29 1
    20   10   11 ar
    21   10   30 1
    22   11   12 ar
    23   11   14 1
    24   12   13 ar
    25   12   31 1
    26   13   32 1
    27   14   15 1
    28   15   16 1
    29   15   33 1
    30   15   34 1
    31   16   17 1
    32   16   35 1
    33   16   36 1
    34   17   21 1
    35   17   18 1
    36   18   19 2
    37   18   37 1
    38   19   20 1
    39   19   38 1
    40   20   21 2
    41   21   39 1
@<TRIPOS>MOLECULE
CHEMBL279643__1
   40    42     0     0     0
SMALL
USER_CHARGES

@<TRIPOS>ATOM
      1 C1         -0.0167    1.3781    0.0096 C.ar      1 <0>        -0.1210
      2 C2          1.1709    2.0855    0.0021 C.ar      1 <0>        -0.1161
      3 C3          2.3773    1.4107   -0.0130 C.ar      1 <0>        -0.1147
      4 C4          2.3960    0.0285   -0.0201 C.ar      1 <0>        -0.0815
      5 C5          1.2084   -0.6789   -0.0117 C.ar      1 <0>        -0.1164
      6 C6          0.0021   -0.0041    0.0020 C.ar      1 <0>        -0.1177
      7 C7          3.7112   -0.7071   -0.0376 C.3       1 <0>        -0.0427
      8 C8          4.1644   -0.9594    1.3773 C.ar      1 <0>        -0.0965
      9 C9          4.9522   -0.0267    2.0264 C.ar      1 <0>        -0.0710
     10 C10         5.3694   -0.2559    3.3232 C.ar      1 <0>        -0.1371
     11 C11         4.9969   -1.4228    3.9745 C.ar      1 <0>         0.1130
     12 C12         4.2060   -2.3568    3.3213 C.ar      1 <0>        -0.2022
     13 C13         3.7871   -2.1206    2.0262 C.ar      1 <0>        -0.0741
     14 O1          5.4064   -1.6507    5.2502 O.3       1 <0>        -0.3078
     15 C14         4.9849   -2.8733    5.8582 C.3       1 <0>         0.0423
     16 C15         5.5391   -2.9523    7.2821 C.3       1 <0>         0.0951
     17 N1          5.1069   -4.2057    7.9054 N.pl3     1 <0>        -0.4084
     18 C16         3.9596   -4.4012    8.6259 C.2       1 <0>         0.0267
     19 C17         3.9568   -5.6915    9.0115 C.2       1 <0>         0.0066
     20 N2          5.0719   -6.2682    8.5393 N.pl3     1 <0>        -0.4743
     21 C18         5.7632   -5.3855    7.8715 C.cat     1 <0>         0.2928
     22 H1         -0.9591    1.9053    0.0259 H         1 <0>         0.1230
     23 H2          1.1563    3.1654    0.0076 H         1 <0>         0.1237
     24 H3          3.3051    1.9634   -0.0196 H         1 <0>         0.1213
     25 H4          1.2231   -1.7588   -0.0176 H         1 <0>         0.1189
     26 H5         -0.9258   -0.5567    0.0082 H         1 <0>         0.1224
     27 H6          3.5884   -1.6586   -0.5549 H         1 <0>         0.0842
     28 H7          4.4573   -0.1052   -0.5563 H         1 <0>         0.0862
     29 H8          5.2420    0.8815    1.5189 H         1 <0>         0.1349
     30 H9          5.9853    0.4726    3.8295 H         1 <0>         0.1351
     31 H10         3.9147   -3.2660    3.8262 H         1 <0>         0.1223
     32 H11         3.1678   -2.8454    1.5188 H         1 <0>         0.1275
     33 H12         3.8958   -2.9068    5.8898 H         1 <0>         0.0773
     34 H13         5.3576   -3.7160    5.2759 H         1 <0>         0.0753
     35 H14         6.6281   -2.9189    7.2505 H         1 <0>         0.1349
     36 H15         5.1664   -2.1096    7.8643 H         1 <0>         0.1374
     37 H16         3.2024   -3.6625    8.8436 H         1 <0>         0.2251
     38 H17         3.1908   -6.1769    9.5981 H         1 <0>         0.2262
     39 H18         6.7054   -5.5676    7.3760 H         1 <0>         0.2623
     40 H19         5.3230   -7.1959    8.6704 H         1 <0>         0.4670
@<TRIPOS>BOND
     1    1    6 ar
     2    1    2 ar
     3    1   22 1
     4    2    3 ar
     5    2   23 1
     6    3    4 ar
     7    3   24 1
     8    4    5 ar
     9    4    7 1
    10    5    6 ar
    11    5   25 1
    12    6   26 1
    13    7    8 1
    14    7   27 1
    15    7   28 1
    16    8   13 ar
    17    8    9 ar
    18    9   10 ar
    19    9   29 1
    20   10   11 ar
    21   10   30 1
    22   11   12 ar
    23   11   14 1
    24   12   13 ar
    25   12   31 1
    26   13   32 1
    27   14   15 1
    28   15   16 1
    29   15   33 1
    30   15   34 1
    31   16   17 1
    32   16   35 1
    33   16   36 1
    34   17   21 1
    35   17   18 1
    36   18   19 2
    37   18   37 1
    38   19   20 1
    39   19   38 1
    40   20   21 2
    41   20   40 1
    42   21   39 1
@<TRIPOS>MOLECULE
CHEMBL479568
   65    69     0     0     0
SMALL
USER_CHARGES

@<TRIPOS>ATOM
      1 C1         -2.3388    4.1028   -0.3012 C.ar      1 <0>        -0.1133
      2 C2         -1.4127    5.1241   -0.3414 C.ar      1 <0>        -0.0844
      3 C3         -0.0497    4.8303   -0.2522 C.ar      1 <0>        -0.0892
      4 C4          0.3649    3.5024   -0.1228 C.ar      1 <0>        -0.0842
      5 C5         -0.5725    2.4915   -0.0840 C.ar      1 <0>        -0.1086
      6 C6         -1.9209    2.7899   -0.1730 C.ar      1 <0>        -0.1826
      7 C7         -2.9390    1.6797   -0.1294 C.3       1 <0>         0.0522
      8 N1         -3.2046    1.2050   -1.4939 N.4       1 <0>        -0.3815
      9 C8         -3.8260    2.2828   -2.2730 C.3       1 <0>        -0.0114
     10 C9         -4.0307    1.8205   -3.7173 C.3       1 <0>        -0.1382
     11 C10        -4.9415    0.5894   -3.7292 C.3       1 <0>        -0.1102
     12 C11        -4.3196   -0.5019   -2.8532 C.3       1 <0>        -0.1416
     13 C12        -4.1042    0.0464   -1.4409 C.3       1 <0>        -0.0058
     14 C13        -5.0865    0.0742   -5.1625 C.3       1 <0>         0.1317
     15 N2         -6.0507   -1.0285   -5.1898 N.pl3     1 <0>        -0.7532
     16 C14        -6.3510   -1.6654   -6.3989 C.ar      1 <0>         0.1815
     17 C15        -5.7310   -1.2564   -7.5723 C.ar      1 <0>        -0.1556
     18 C16        -6.0275   -1.8858   -8.7651 C.ar      1 <0>        -0.1440
     19 C17        -6.9446   -2.9265   -8.7915 C.ar      1 <0>         0.0720
     20 C18        -7.5647   -3.3354   -7.6197 C.ar      1 <0>        -0.0944
     21 C19        -7.2649   -2.7107   -6.4252 C.ar      1 <0>        -0.1534
     22 O1         -7.2361   -3.5458   -9.9664 O.3       1 <0>        -0.2612
     23 C20        -6.5995   -3.1185  -11.0874 C.ar      1 <0>         0.1065
     24 C21        -5.3916   -3.6946  -11.4604 C.ar      1 <0>        -0.1274
     25 C22        -4.7424   -3.2635  -12.5969 C.ar      1 <0>        -0.0561
     26 C23        -5.3006   -2.2465  -13.3743 C.ar      1 <0>        -0.0165
     27 C24        -6.5151   -1.6703  -12.9963 C.ar      1 <0>        -0.0745
     28 C25        -7.1608   -2.1105  -11.8613 C.ar      1 <0>        -0.1271
     29 C26        -4.6076   -1.7810  -14.5932 C.2       1 <0>         0.2264
     30 N3         -3.4691   -2.2458  -15.0526 N.2       1 <0>        -0.4684
     31 C27        -3.1562   -1.5807  -16.1755 C.2       1 <0>        -0.0381
     32 C28        -4.1312   -0.6841  -16.4089 C.2       1 <0>        -0.0657
     33 O2         -5.0400   -0.8144  -15.4215 O.3       1 <0>        -0.1967
     34 C29         0.9471    5.9172   -0.2950 C.2       1 <0>         0.5089
     35 O3          0.5810    7.0785   -0.4087 O.co2     1 <0>        -0.6722
     36 O4          2.1394    5.6568   -0.2167 O.co2     1 <0>        -0.6718
     37 H1         -3.3930    4.3288   -0.3655 H         1 <0>         0.1215
     38 H2         -1.7403    6.1483   -0.4419 H         1 <0>         0.1386
     39 H3          1.4169    3.2680   -0.0537 H         1 <0>         0.1386
     40 H4         -0.2535    1.4645    0.0156 H         1 <0>         0.1219
     41 H5         -2.5539    0.8569    0.4730 H         1 <0>         0.1311
     42 H6         -3.8635    2.0517    0.3123 H         1 <0>         0.1292
     43 H7         -4.7902    2.5386   -1.8337 H         1 <0>         0.1264
     44 H8         -3.1782    3.1593   -2.2609 H         1 <0>         0.1393
     45 H9         -4.4938    2.6214   -4.2936 H         1 <0>         0.1137
     46 H10        -3.0671    1.5646   -4.1576 H         1 <0>         0.0913
     47 H11        -5.9221    0.8577   -3.3361 H         1 <0>         0.0948
     48 H12        -4.9892   -1.3610   -2.8118 H         1 <0>         0.1086
     49 H13        -3.3619   -0.8060   -3.2756 H         1 <0>         0.0905
     50 H14        -3.6617   -0.7282   -0.8145 H         1 <0>         0.1293
     51 H15        -5.0625    0.3499   -1.0194 H         1 <0>         0.1266
     52 H16        -5.4392    0.8812   -5.8048 H         1 <0>         0.0675
     53 H17        -4.1198   -0.2795   -5.5210 H         1 <0>         0.0644
     54 H18        -6.4809   -1.3170   -4.3697 H         1 <0>         0.3977
     55 H19        -5.0174   -0.4460   -7.5520 H         1 <0>         0.1233
     56 H20        -5.5457   -1.5676   -9.6778 H         1 <0>         0.1280
     57 H21        -8.2787   -4.1454   -7.6411 H         1 <0>         0.1345
     58 H22        -7.7444   -3.0320   -5.5124 H         1 <0>         0.1287
     59 H23        -4.9606   -4.4811  -10.8586 H         1 <0>         0.1418
     60 H24        -3.8031   -3.7113  -12.8858 H         1 <0>         0.1473
     61 H25        -6.9497   -0.8833  -13.5948 H         1 <0>         0.1401
     62 H26        -8.1023   -1.6684  -11.5707 H         1 <0>         0.1407
     63 H27        -2.2775   -1.7374  -16.7835 H         1 <0>         0.1897
     64 H28        -4.1791    0.0090  -17.2358 H         1 <0>         0.2210
     65 H29        -2.3357    0.9353   -1.9302 H         1 <0>         0.4221
@<TRIPOS>BOND
     1    1    6 ar
     2    1    2 ar
     3    1   37 1
     4    2    3 ar
     5    2   38 1
     6    3    4 ar
     7    3   34 1
     8    4    5 ar
     9    4   39 1
    10    5    6 ar
    11    5   40 1
    12    6    7 1
    13    7    8 1
    14    7   41 1
    15    7   42 1
    16    8   13 1
    17    8    9 1
    18    8   65 1
    19    9   10 1
    20    9   43 1
    21    9   44 1
    22   10   11 1
    23   10   45 1
    24   10   46 1
    25   11   12 1
    26   11   14 1
    27   11   47 1
    28   12   13 1
    29   12   48 1
    30   12   49 1
    31   13   50 1
    32   13   51 1
    33   14   15 1
    34   14   52 1
    35   14   53 1
    36   15   16 1
    37   15   54 1
    38   16   21 ar
    39   16   17 ar
    40   17   18 ar
    41   17   55 1
    42   18   19 ar
    43   18   56 1
    44   19   20 ar
    45   19   22 1
    46   20   21 ar
    47   20   57 1
    48   21   58 1
    49   22   23 1
    50   23   28 ar
    51   23   24 ar
    52   24   25 ar
    53   24   59 1
    54   25   26 ar
    55   25   60 1
    56   26   27 ar
    57   26   29 1
    58   27   28 ar
    59   27   61 1
    60   28   62 1
    61   29   33 1
    62   29   30 2
    63   30   31 1
    64   31   32 2
    65   31   63 1
    66   32   33 1
    67   32   64 1
    68   34   35 2
    69   34   36 1
@<TRIPOS>MOLECULE
CHEMBL162835
   46    48     0     0     0
SMALL
USER_CHARGES

@<TRIPOS>ATOM
      1 C1         -0.0167    1.3788    0.0096 C.ar      1 <0>        -0.1201
      2 C2          1.1695    2.0899    0.0021 C.ar      1 <0>        -0.0990
      3 C3          2.3774    1.4209   -0.0134 C.ar      1 <0>        -0.0993
      4 C4          2.4001    0.0314   -0.0211 C.ar      1 <0>        -0.0890
      5 C5          1.2062   -0.6798   -0.0130 C.ar      1 <0>        -0.1343
      6 C6          0.0021   -0.0041    0.0020 C.ar      1 <0>        -0.0995
      7 S1          3.9390   -0.8266   -0.0415 S.3       1 <0>        -0.1110
      8 C7          3.4652   -2.5776   -0.0459 C.3       1 <0>        -0.0693
      9 C8          4.7054   -3.4335   -0.0632 C.ar      1 <0>        -0.0947
     10 C9          5.2642   -3.8145   -1.2692 C.ar      1 <0>        -0.0575
     11 C10         6.4008   -4.5994   -1.2878 C.ar      1 <0>        -0.1395
     12 C11         6.9818   -5.0052   -0.0950 C.ar      1 <0>         0.1196
     13 C12         6.4193   -4.6213    1.1136 C.ar      1 <0>        -0.2010
     14 C13         5.2857   -3.8319    1.1268 C.ar      1 <0>        -0.0579
     15 O1          8.0997   -5.7778   -0.1107 O.3       1 <0>        -0.3274
     16 C14         8.6432   -6.1580    1.1550 C.3       1 <0>         0.0264
     17 C15         9.8894   -7.0186    0.9371 C.3       1 <0>         0.0040
     18 N1         10.9343   -6.2126    0.2917 N.4       1 <0>        -0.3959
     19 C16        11.4352   -5.1765    1.2307 C.3       1 <0>        -0.0106
     20 C17        12.8315   -4.8248    0.6586 C.3       1 <0>        -0.1447
     21 C18        13.3591   -6.1930    0.1690 C.3       1 <0>        -0.1451
     22 C19        12.1023   -7.0591   -0.0352 C.3       1 <0>        -0.0086
     23 H1         -0.9599    1.9047    0.0260 H         1 <0>         0.1283
     24 H2          1.1511    3.1697    0.0081 H         1 <0>         0.1309
     25 H3          3.3033    1.9769   -0.0200 H         1 <0>         0.1278
     26 H4          1.2201   -1.7597   -0.0189 H         1 <0>         0.1214
     27 H5         -0.9262   -0.5561    0.0079 H         1 <0>         0.1278
     28 H6          2.8835   -2.7989    0.8489 H         1 <0>         0.0994
     29 H7          2.8651   -2.7894   -0.9309 H         1 <0>         0.1004
     30 H8          4.8116   -3.4983   -2.1974 H         1 <0>         0.1394
     31 H9          6.8366   -4.8973   -2.2300 H         1 <0>         0.1366
     32 H10         6.8697   -4.9359    2.0435 H         1 <0>         0.1304
     33 H11         4.8500   -3.5291    2.0675 H         1 <0>         0.1343
     34 H12         8.9127   -5.2644    1.7179 H         1 <0>         0.0861
     35 H13         7.9006   -6.7286    1.7128 H         1 <0>         0.1089
     36 H14        10.2526   -7.3819    1.8984 H         1 <0>         0.1488
     37 H15         9.6386   -7.8663    0.2995 H         1 <0>         0.1414
     38 H16        10.7844   -4.3022    1.2216 H         1 <0>         0.1335
     39 H17        11.5234   -5.5813    2.2389 H         1 <0>         0.1350
     40 H18        12.7427   -4.1257   -0.1730 H         1 <0>         0.0985
     41 H19        13.4766   -4.4191    1.4378 H         1 <0>         0.1174
     42 H20        13.8955   -6.0767   -0.7727 H         1 <0>         0.1057
     43 H21        14.0081   -6.6398    0.9223 H         1 <0>         0.1045
     44 H22        12.1336   -7.9217    0.6304 H         1 <0>         0.1314
     45 H23        12.0431   -7.3890   -1.0724 H         1 <0>         0.1330
     46 H24        10.5732   -5.7798   -0.5452 H         1 <0>         0.4337
@<TRIPOS>BOND
     1    1    6 ar
     2    1    2 ar
     3    1   23 1
     4    2    3 ar
     5    2   24 1
     6    3    4 ar
     7    3   25 1
     8    4    5 ar
     9    4    7 1
    10    5    6 ar
    11    5   26 1
    12    6   27 1
    13    7    8 1
    14    8    9 1
    15    8   28 1
    16    8   29 1
    17    9   14 ar
    18    9   10 ar
    19   10   11 ar
    20   10   30 1
    21   11   12 ar
    22   11   31 1
    23   12   13 ar
    24   12   15 1
    25   13   14 ar
    26   13   32 1
    27   14   33 1
    28   15   16 1
    29   16   17 1
    30   16   34 1
    31   16   35 1
    32   17   18 1
    33   17   36 1
    34   17   37 1
    35   18   22 1
    36   18   19 1
    37   18   46 1
    38   19   20 1
    39   19   38 1
    40   19   39 1
    41   20   21 1
    42   20   40 1
    43   20   41 1
    44   21   22 1
    45   21   42 1
    46   21   43 1
    47   22   44 1
    48   22   45 1
@<TRIPOS>MOLECULE
CHEMBL162424
   43    45     0     0     0
SMALL
USER_CHARGES

@<TRIPOS>ATOM
      1 C1          3.3372    1.3633    3.5653 C.ar      1 <0>        -0.1475
      2 C2          3.4193   -0.0168    3.5450 C.ar      1 <0>        -0.0826
      3 C3          3.5025   -0.6873    2.3401 C.ar      1 <0>        -0.1963
      4 C4          3.5033    0.0255    1.1495 C.ar      1 <0>         0.1149
      5 C5          3.4204    1.4104    1.1728 C.ar      1 <0>        -0.1424
      6 C6          3.3378    2.0760    2.3804 C.ar      1 <0>        -0.0792
      7 O1          3.5855   -0.6316   -0.0370 O.3       1 <0>        -0.2580
      8 C7          3.6573   -1.9891   -0.0113 C.ar      1 <0>         0.0672
      9 C8          2.4953   -2.7460   -0.0463 C.ar      1 <0>        -0.0842
     10 C9          2.5684   -4.1250   -0.0201 C.ar      1 <0>        -0.1273
     11 C10         3.8036   -4.7531    0.0412 C.ar      1 <0>         0.1133
     12 C11         4.9655   -3.9963    0.0763 C.ar      1 <0>        -0.1879
     13 C12         4.8929   -2.6174    0.0443 C.ar      1 <0>        -0.0843
     14 O2          3.8754   -6.1107    0.0675 O.3       1 <0>        -0.3227
     15 C13         5.1800   -6.6902    0.1308 C.3       1 <0>         0.0263
     16 C14         5.0601   -8.2154    0.1521 C.3       1 <0>         0.0014
     17 N1          4.4900   -8.6795   -1.1198 N.4       1 <0>        -0.3915
     18 C15         3.0972   -8.1998   -1.2452 C.3       1 <0>        -0.0021
     19 C16         2.3449   -9.3513   -1.9577 C.3       1 <0>        -0.1457
     20 C17         3.0174  -10.6006   -1.3301 C.3       1 <0>        -0.1421
     21 C18         4.4836  -10.1536   -1.1520 C.3       1 <0>        -0.0134
     22 H1          3.2681    1.8854    4.5083 H         1 <0>         0.1286
     23 H2          3.4186   -0.5710    4.4719 H         1 <0>         0.1268
     24 H3          3.5672   -1.7652    2.3248 H         1 <0>         0.1233
     25 H4          3.4212    1.9675    0.2476 H         1 <0>         0.1345
     26 H5          3.2736    3.1539    2.3991 H         1 <0>         0.1350
     27 H6          1.5335   -2.2570   -0.0937 H         1 <0>         0.1450
     28 H7          1.6637   -4.7143   -0.0470 H         1 <0>         0.1413
     29 H8          5.9272   -4.4855    0.1240 H         1 <0>         0.1354
     30 H9          5.7978   -2.0283    0.0667 H         1 <0>         0.1400
     31 H10         5.7567   -6.3832   -0.7417 H         1 <0>         0.0874
     32 H11         5.6839   -6.3527    1.0365 H         1 <0>         0.1102
     33 H12         6.0477   -8.6556    0.2897 H         1 <0>         0.1498
     34 H13         4.4101   -8.5173    0.9733 H         1 <0>         0.1408
     35 H14         2.6681   -8.0187   -0.2597 H         1 <0>         0.1376
     36 H15         3.0612   -7.2926   -1.8483 H         1 <0>         0.1342
     37 H16         1.2800   -9.3237   -1.7268 H         1 <0>         0.1164
     38 H17         2.5104   -9.3183   -3.0346 H         1 <0>         0.0971
     39 H18         2.5669  -10.8374   -0.3662 H         1 <0>         0.0986
     40 H19         2.9538  -11.4531   -2.0063 H         1 <0>         0.1126
     41 H20         5.0839  -10.5087   -1.9897 H         1 <0>         0.1327
     42 H21         4.8801  -10.5467   -0.2159 H         1 <0>         0.1319
     43 H22         5.0396   -8.3254   -1.8883 H         1 <0>         0.4248
@<TRIPOS>BOND
     1    1    6 ar
     2    1    2 ar
     3    1   22 1
     4    2    3 ar
     5    2   23 1
     6    3    4 ar
     7    3   24 1
     8    4    5 ar
     9    4    7 1
    10    5    6 ar
    11    5   25 1
    12    6   26 1
    13    7    8 1
    14    8   13 ar
    15    8    9 ar
    16    9   10 ar
    17    9   27 1
    18   10   11 ar
    19   10   28 1
    20   11   12 ar
    21   11   14 1
    22   12   13 ar
    23   12   29 1
    24   13   30 1
    25   14   15 1
    26   15   16 1
    27   15   31 1
    28   15   32 1
    29   16   17 1
    30   16   33 1
    31   16   34 1
    32   17   21 1
    33   17   18 1
    34   17   43 1
    35   18   19 1
    36   18   35 1
    37   18   36 1
    38   19   20 1
    39   19   37 1
    40   19   38 1
    41   20   21 1
    42   20   39 1
    43   20   40 1
    44   21   41 1
    45   21   42 1
@<TRIPOS>MOLECULE
CHEMBL520254
   61    65     0     0     0
SMALL
USER_CHARGES

@<TRIPOS>ATOM
      1 C1          6.3754    1.3036   -1.7267 C.ar      1 <0>        -0.1514
      2 C2          5.5101    2.0150   -0.9161 C.ar      1 <0>        -0.0818
      3 C3          4.5782    1.3477   -0.1452 C.ar      1 <0>        -0.1449
      4 C4          4.5105   -0.0376   -0.1851 C.ar      1 <0>         0.1191
      5 C5          5.3798   -0.7491   -0.9998 C.ar      1 <0>        -0.1961
      6 C6          6.3102   -0.0770   -1.7683 C.ar      1 <0>        -0.0824
      7 O1          3.5950   -0.6964    0.5726 O.3       1 <0>        -0.2575
      8 C7          3.4981   -2.0447    0.4279 C.ar      1 <0>         0.0727
      9 C8          4.4593   -2.8733    0.9888 C.ar      1 <0>        -0.1111
     10 C9          4.3615   -4.2427    0.8421 C.ar      1 <0>        -0.1110
     11 C10         3.3006   -4.7907    0.1334 C.ar      1 <0>         0.1442
     12 C11         2.3387   -3.9611   -0.4274 C.ar      1 <0>        -0.1319
     13 C12         2.4350   -2.5920   -0.2760 C.ar      1 <0>        -0.0986
     14 N1          3.2010   -6.1801   -0.0162 N.am      1 <0>        -0.6697
     15 C13         4.3120   -6.9424    0.0135 C.2       1 <0>         0.5109
     16 O2          5.4048   -6.4196    0.0742 O.2       1 <0>        -0.4953
     17 C14         4.1966   -8.4444   -0.0285 C.3       1 <0>         0.0246
     18 N2          5.5387   -9.0401    0.0155 N.3       1 <0>        -0.4968
     19 C15         6.2514   -8.8397   -1.2693 C.3       1 <0>         0.0143
     20 C16         6.5310  -10.2774   -1.8067 C.3       1 <0>         0.0061
     21 C17         5.2582  -11.0164   -1.2580 C.3       1 <0>        -0.1775
     22 C18         5.4618  -10.5212    0.2187 C.3       1 <0>         0.0585
     23 C19         6.9450  -10.9528    0.4376 C.3       1 <0>        -0.0017
     24 N3          7.5882  -10.8105   -0.8908 N.4       1 <0>        -0.3902
     25 C20         8.7107   -9.8663   -0.8106 C.3       1 <0>         0.0479
     26 C21         9.8337  -10.4870   -0.0203 C.ar      1 <0>        -0.1778
     27 C22         9.8859  -10.3170    1.3521 C.ar      1 <0>        -0.1089
     28 C23        10.9110  -10.8818    2.0818 C.ar      1 <0>        -0.0841
     29 C24        11.8979  -11.6274    1.4322 C.ar      1 <0>        -0.0907
     30 C25        11.8385  -11.7953    0.0464 C.ar      1 <0>        -0.0849
     31 C26        10.8047  -11.2290   -0.6697 C.ar      1 <0>        -0.1106
     32 C27        12.9979  -12.2343    2.2058 C.2       1 <0>         0.5094
     33 O3         13.0474  -12.0853    3.4186 O.co2     1 <0>        -0.6727
     34 O4         13.8603  -12.8864    1.6342 O.co2     1 <0>        -0.6732
     35 H1          7.1006    1.8274   -2.3318 H         1 <0>         0.1262
     36 H2          5.5632    3.0933   -0.8854 H         1 <0>         0.1325
     37 H3          3.9030    1.9038    0.4883 H         1 <0>         0.1331
     38 H4          5.3294   -1.8274   -1.0324 H         1 <0>         0.1276
     39 H5          6.9872   -0.6302   -2.4023 H         1 <0>         0.1254
     40 H6          5.2845   -2.4470    1.5401 H         1 <0>         0.1360
     41 H7          5.1101   -4.8875    1.2782 H         1 <0>         0.1502
     42 H8          1.5133   -4.3867   -0.9788 H         1 <0>         0.1351
     43 H9          1.6847   -1.9468   -0.7086 H         1 <0>         0.1385
     44 H10         2.3324   -6.5934   -0.1413 H         1 <0>         0.4137
     45 H11         3.6181   -8.7885    0.8289 H         1 <0>         0.1212
     46 H12         3.6958   -8.7447   -0.9489 H         1 <0>         0.0799
     47 H13         5.6224   -8.2896   -1.9692 H         1 <0>         0.0971
     48 H14         7.1887   -8.3087   -1.1034 H         1 <0>         0.1204
     49 H15         6.7336  -10.3616   -2.8744 H         1 <0>         0.1751
     50 H16         4.3363  -10.6370   -1.6989 H         1 <0>         0.1169
     51 H17         5.3377  -12.0999   -1.3464 H         1 <0>         0.1107
     52 H18         4.7344  -10.8681    0.9525 H         1 <0>         0.1606
     53 H19         7.4267  -10.2977    1.1635 H         1 <0>         0.1461
     54 H20         6.9922  -11.9892    0.7720 H         1 <0>         0.1372
     55 H21         9.0605   -9.6314   -1.8159 H         1 <0>         0.1282
     56 H22         8.3816   -8.9517   -0.3174 H         1 <0>         0.1400
     57 H23         9.1223   -9.7403    1.8529 H         1 <0>         0.1219
     58 H24        10.9509  -10.7477    3.1527 H         1 <0>         0.1379
     59 H25        12.5980  -12.3704   -0.4623 H         1 <0>         0.1375
     60 H26        10.7550  -11.3616   -1.7404 H         1 <0>         0.1204
     61 H27         7.9109  -11.7086   -1.2184 H         1 <0>         0.4240
@<TRIPOS>BOND
     1    1    6 ar
     2    1    2 ar
     3    1   35 1
     4    2    3 ar
     5    2   36 1
     6    3    4 ar
     7    3   37 1
     8    4    5 ar
     9    4    7 1
    10    5    6 ar
    11    5   38 1
    12    6   39 1
    13    7    8 1
    14    8   13 ar
    15    8    9 ar
    16    9   10 ar
    17    9   40 1
    18   10   11 ar
    19   10   41 1
    20   11   12 ar
    21   11   14 1
    22   12   13 ar
    23   12   42 1
    24   13   43 1
    25   14   15 am
    26   14   44 1
    27   15   16 2
    28   15   17 1
    29   17   18 1
    30   17   45 1
    31   17   46 1
    32   18   22 1
    33   18   19 1
    34   19   20 1
    35   19   47 1
    36   19   48 1
    37   20   24 1
    38   20   21 1
    39   20   49 1
    40   21   22 1
    41   21   50 1
    42   21   51 1
    43   22   23 1
    44   22   52 1
    45   23   24 1
    46   23   53 1
    47   23   54 1
    48   24   25 1
    49   24   61 1
    50   25   26 1
    51   25   55 1
    52   25   56 1
    53   26   31 ar
    54   26   27 ar
    55   27   28 ar
    56   27   57 1
    57   28   29 ar
    58   28   58 1
    59   29   30 ar
    60   29   32 1
    61   30   31 ar
    62   30   59 1
    63   31   60 1
    64   32   33 2
    65   32   34 1
@<TRIPOS>MOLECULE
CHEMBL520254__1
   60    64     0     0     0
SMALL
USER_CHARGES

@<TRIPOS>ATOM
      1 C1          6.4470    1.2734   -2.3323 C.ar      1 <0>        -0.1540
      2 C2          5.5520    2.0183   -1.5867 C.ar      1 <0>        -0.0842
      3 C3          4.5895    1.3841   -0.8254 C.ar      1 <0>        -0.1479
      4 C4          4.5211   -0.0017   -0.8097 C.ar      1 <0>         0.1207
      5 C5          5.4202   -0.7468   -1.5592 C.ar      1 <0>        -0.1946
      6 C6          6.3810   -0.1077   -2.3184 C.ar      1 <0>        -0.0811
      7 O1          3.5756   -0.6280   -0.0612 O.3       1 <0>        -0.2573
      8 C7          3.4806   -1.9810   -0.1547 C.ar      1 <0>         0.0611
      9 C8          4.4211   -2.7870    0.4706 C.ar      1 <0>        -0.1090
     10 C9          4.3251   -4.1612    0.3761 C.ar      1 <0>        -0.1147
     11 C10         3.2869   -4.7364   -0.3446 C.ar      1 <0>         0.1568
     12 C11         2.3458   -3.9293   -0.9697 C.ar      1 <0>        -0.1385
     13 C12         2.4400   -2.5553   -0.8705 C.ar      1 <0>        -0.0978
     14 N1          3.1893   -6.1306   -0.4412 N.am      1 <0>        -0.6766
     15 C13         4.2945   -6.8932   -0.3253 C.2       1 <0>         0.5116
     16 O2          5.3862   -6.3707   -0.2448 O.2       1 <0>        -0.4894
     17 C14         4.1740   -8.3951   -0.2956 C.3       1 <0>         0.0289
     18 N2          5.5103   -8.9910   -0.1641 N.3       1 <0>        -0.4970
     19 C15         6.2778   -8.8584   -1.4259 C.3       1 <0>         0.0079
     20 C16         6.5733  -10.3223   -1.8770 C.3       1 <0>         0.0412
     21 C17         5.2750  -11.0291   -1.3461 C.3       1 <0>        -0.1567
     22 C18         5.4180  -10.4597    0.1108 C.3       1 <0>         0.0408
     23 C19         6.8885  -10.8832    0.4145 C.3       1 <0>         0.0499
     24 N3          7.5882  -10.8105   -0.8908 N.3       1 <0>        -0.5058
     25 C20         8.7371   -9.8977   -0.8222 C.3       1 <0>         0.0912
     26 C21         9.8862  -10.5873   -0.1328 C.ar      1 <0>        -0.0901
     27 C22        10.0188  -10.4970    1.2417 C.ar      1 <0>        -0.1296
     28 C23        11.0681  -11.1251    1.8793 C.ar      1 <0>        -0.0869
     29 C24        11.9982  -11.8543    1.1341 C.ar      1 <0>        -0.1319
     30 C25        11.8576  -11.9415   -0.2533 C.ar      1 <0>        -0.0879
     31 C26        10.8003  -11.3125   -0.8768 C.ar      1 <0>        -0.1188
     32 C27        13.1237  -12.5287    1.8088 C.2       1 <0>         0.5186
     33 O3         13.2442  -12.4501    3.0233 O.co2     1 <0>        -0.6892
     34 O4         13.9360  -13.1662    1.1537 O.co2     1 <0>        -0.6889
     35 H1          7.1961    1.7713   -2.9302 H         1 <0>         0.1247
     36 H2          5.6056    3.0969   -1.5993 H         1 <0>         0.1302
     37 H3          3.8911    1.9664   -0.2426 H         1 <0>         0.1313
     38 H4          5.3693   -1.8256   -1.5484 H         1 <0>         0.1299
     39 H5          7.0813   -0.6871   -2.9017 H         1 <0>         0.1261
     40 H6          5.2285   -2.3395    1.0311 H         1 <0>         0.1341
     41 H7          5.0576   -4.7885    0.8622 H         1 <0>         0.1526
     42 H8          1.5381   -4.3762   -1.5304 H         1 <0>         0.1339
     43 H9          1.7057   -1.9275   -1.3533 H         1 <0>         0.1355
     44 H10         2.3263   -6.5471   -0.5916 H         1 <0>         0.4118
     45 H11         3.5580   -8.6935    0.5527 H         1 <0>         0.1084
     46 H12         3.7114   -8.7408   -1.2200 H         1 <0>         0.0691
     47 H13         5.6818   -8.3432   -2.1791 H         1 <0>         0.0545
     48 H14         7.2097   -8.3218   -1.2474 H         1 <0>         0.0967
     49 H15         6.8208  -10.4614   -2.9294 H         1 <0>         0.1232
     50 H16         4.3745  -10.6705   -1.8447 H         1 <0>         0.0721
     51 H17         5.3531  -12.1159   -1.3758 H         1 <0>         0.0909
     52 H18         4.6584  -10.7668    0.8296 H         1 <0>         0.1216
     53 H19         7.3419  -10.1930    1.1259 H         1 <0>         0.0735
     54 H20         6.9167  -11.9012    0.8029 H         1 <0>         0.0845
     55 H21         9.0363   -9.6137   -1.8311 H         1 <0>         0.0738
     56 H22         8.4593   -9.0055   -0.2609 H         1 <0>         0.0546
     57 H23         9.2992   -9.9329    1.8164 H         1 <0>         0.1087
     58 H24        11.1709  -11.0532    2.9520 H         1 <0>         0.1232
     59 H25        12.5728  -12.5035   -0.8356 H         1 <0>         0.1236
     60 H26        10.6879  -11.3826   -1.9486 H         1 <0>         0.1107
@<TRIPOS>BOND
     1    1    6 ar
     2    1    2 ar
     3    1   35 1
     4    2    3 ar
     5    2   36 1
     6    3    4 ar
     7    3   37 1
     8    4    5 ar
     9    4    7 1
    10    5    6 ar
    11    5   38 1
    12    6   39 1
    13    7    8 1
    14    8   13 ar
    15    8    9 ar
    16    9   10 ar
    17    9   40 1
    18   10   11 ar
    19   10   41 1
    20   11   12 ar
    21   11   14 1
    22   12   13 ar
    23   12   42 1
    24   13   43 1
    25   14   15 am
    26   14   44 1
    27   15   16 2
    28   15   17 1
    29   17   18 1
    30   17   45 1
    31   17   46 1
    32   18   22 1
    33   18   19 1
    34   19   20 1
    35   19   47 1
    36   19   48 1
    37   20   24 1
    38   20   21 1
    39   20   49 1
    40   21   22 1
    41   21   50 1
    42   21   51 1
    43   22   23 1
    44   22   52 1
    45   23   24 1
    46   23   53 1
    47   23   54 1
    48   24   25 1
    49   25   26 1
    50   25   55 1
    51   25   56 1
    52   26   31 ar
    53   26   27 ar
    54   27   28 ar
    55   27   57 1
    56   28   29 ar
    57   28   58 1
    58   29   30 ar
    59   29   32 1
    60   30   31 ar
    61   30   59 1
    62   31   60 1
    63   32   33 2
    64   32   34 1
@<TRIPOS>MOLECULE
CHEMBL520254__2
   61    65     0     0     0
SMALL
USER_CHARGES

@<TRIPOS>ATOM
      1 C1          6.5225    1.4306   -0.1507 C.ar      1 <0>        -0.1518
      2 C2          5.5304    2.0392    0.5957 C.ar      1 <0>        -0.0819
      3 C3          4.4789    1.2916    1.0895 C.ar      1 <0>        -0.1450
      4 C4          4.4187   -0.0712    0.8354 C.ar      1 <0>         0.1195
      5 C5          5.4155   -0.6794    0.0857 C.ar      1 <0>        -0.1955
      6 C6          6.4650    0.0727   -0.4052 C.ar      1 <0>        -0.0825
      7 O1          3.3858   -0.8089    1.3203 O.3       1 <0>        -0.2577
      8 C7          3.3277   -2.1247    0.9832 C.ar      1 <0>         0.0747
      9 C8          4.1423   -3.0429    1.6300 C.ar      1 <0>        -0.1111
     10 C9          4.0837   -4.3794    1.2881 C.ar      1 <0>        -0.1042
     11 C10         3.2091   -4.8045    0.2970 C.ar      1 <0>         0.1438
     12 C11         2.3938   -3.8852   -0.3497 C.ar      1 <0>        -0.1274
     13 C12         2.4497   -2.5497   -0.0036 C.ar      1 <0>        -0.0998
     14 N1          3.1496   -6.1603   -0.0507 N.am      1 <0>        -0.6726
     15 C13         4.2617   -6.9196    0.0044 C.2       1 <0>         0.5123
     16 O2          5.3312   -6.4106    0.2658 O.2       1 <0>        -0.4915
     17 C14         4.1765   -8.4010   -0.2587 C.3       1 <0>         0.0160
     18 N2          5.5137   -8.9973   -0.1392 N.3       1 <0>        -0.4938
     19 C15         6.3167   -8.7507   -1.3611 C.3       1 <0>         0.0247
     20 C16         6.7206  -10.1677   -1.8740 C.3       1 <0>         0.0052
     21 C17         6.8494  -10.9187   -0.5005 C.3       1 <0>        -0.1349
     22 C18         5.4269  -10.4847    0.0050 C.3       1 <0>         0.0648
     23 C19         4.5662  -10.9358   -1.2156 C.3       1 <0>        -0.0588
     24 N3          5.4422  -10.7450   -2.3968 N.4       1 <0>        -0.3949
     25 C20         5.6997  -12.0358   -3.0491 C.3       1 <0>         0.0540
     26 C21         4.4272  -12.5446   -3.6760 C.ar      1 <0>        -0.1815
     27 C22         3.5685  -13.3426   -2.9406 C.ar      1 <0>        -0.1124
     28 C23         2.4024  -13.8122   -3.5080 C.ar      1 <0>        -0.0837
     29 C24         2.0888  -13.4799   -4.8284 C.ar      1 <0>        -0.0893
     30 C25         2.9604  -12.6734   -5.5646 C.ar      1 <0>        -0.0837
     31 C26         4.1204  -12.2068   -4.9824 C.ar      1 <0>        -0.1098
     32 C27         0.8435  -13.9788   -5.4425 C.2       1 <0>         0.5089
     33 O3          0.0829  -14.6849   -4.7956 O.co2     1 <0>        -0.6719
     34 O4          0.5719  -13.6862   -6.5984 O.co2     1 <0>        -0.6715
     35 H1          7.3415    2.0177   -0.5392 H         1 <0>         0.1260
     36 H2          5.5777    3.1000    0.7932 H         1 <0>         0.1324
     37 H3          3.7046    1.7674    1.6730 H         1 <0>         0.1332
     38 H4          5.3712   -1.7400   -0.1131 H         1 <0>         0.1273
     39 H5          7.2412   -0.4002   -0.9885 H         1 <0>         0.1253
     40 H6          4.8226   -2.7122    2.4009 H         1 <0>         0.1359
     41 H7          4.7184   -5.0939    1.7912 H         1 <0>         0.1424
     42 H8          1.7133   -4.2152   -1.1207 H         1 <0>         0.1362
     43 H9          1.8127   -1.8351   -0.5037 H         1 <0>         0.1392
     44 H10         2.3079   -6.5526   -0.3312 H         1 <0>         0.4141
     45 H11         3.5072   -8.8612    0.4681 H         1 <0>         0.1241
     46 H12         3.7920   -8.5698   -1.2646 H         1 <0>         0.0735
     47 H13         5.7169   -8.2338   -2.1102 H         1 <0>         0.0783
     48 H14         7.2056   -8.1683   -1.1189 H         1 <0>         0.1309
     49 H15         7.5772  -10.2104   -2.5467 H         1 <0>         0.1784
     50 H16         6.9335  -11.9983   -0.6247 H         1 <0>         0.1094
     51 H17         7.6502  -10.5151    0.1190 H         1 <0>         0.1311
     52 H18         5.1250  -10.8554    0.9845 H         1 <0>         0.1673
     53 H19         4.2885  -11.9851   -1.1159 H         1 <0>         0.1443
     54 H20         3.6751  -10.3140   -1.3009 H         1 <0>         0.1335
     55 H21         6.4590  -11.9079   -3.8206 H         1 <0>         0.1307
     56 H22         6.0518  -12.7535   -2.3081 H         1 <0>         0.1299
     57 H23         3.8122  -13.5986   -1.9201 H         1 <0>         0.1202
     58 H24         1.7335  -14.4355   -2.9332 H         1 <0>         0.1387
     59 H25         2.7243  -12.4126   -6.5857 H         1 <0>         0.1386
     60 H26         4.7929  -11.5796   -5.5489 H         1 <0>         0.1213
     61 H27         5.0127  -10.1050   -3.0479 H         1 <0>         0.4207
@<TRIPOS>BOND
     1    1    6 ar
     2    1    2 ar
     3    1   35 1
     4    2    3 ar
     5    2   36 1
     6    3    4 ar
     7    3   37 1
     8    4    5 ar
     9    4    7 1
    10    5    6 ar
    11    5   38 1
    12    6   39 1
    13    7    8 1
    14    8   13 ar
    15    8    9 ar
    16    9   10 ar
    17    9   40 1
    18   10   11 ar
    19   10   41 1
    20   11   12 ar
    21   11   14 1
    22   12   13 ar
    23   12   42 1
    24   13   43 1
    25   14   15 am
    26   14   44 1
    27   15   16 2
    28   15   17 1
    29   17   18 1
    30   17   45 1
    31   17   46 1
    32   18   22 1
    33   18   19 1
    34   19   20 1
    35   19   47 1
    36   19   48 1
    37   20   24 1
    38   20   21 1
    39   20   49 1
    40   21   22 1
    41   21   50 1
    42   21   51 1
    43   22   23 1
    44   22   52 1
    45   23   24 1
    46   23   53 1
    47   23   54 1
    48   24   25 1
    49   24   61 1
    50   25   26 1
    51   25   55 1
    52   25   56 1
    53   26   31 ar
    54   26   27 ar
    55   27   28 ar
    56   27   57 1
    57   28   29 ar
    58   28   58 1
    59   29   30 ar
    60   29   32 1
    61   30   31 ar
    62   30   59 1
    63   31   60 1
    64   32   33 2
    65   32   34 1
@<TRIPOS>MOLECULE
CHEMBL520254__3
   60    64     0     0     0
SMALL
USER_CHARGES

@<TRIPOS>ATOM
      1 C1          6.5225    1.4306   -0.1507 C.ar      1 <0>        -0.1551
      2 C2          5.5303    2.0392    0.5957 C.ar      1 <0>        -0.0846
      3 C3          4.4789    1.2917    1.0894 C.ar      1 <0>        -0.1485
      4 C4          4.4187   -0.0712    0.8354 C.ar      1 <0>         0.1219
      5 C5          5.4155   -0.6794    0.0856 C.ar      1 <0>        -0.1937
      6 C6          6.4649    0.0728   -0.4053 C.ar      1 <0>        -0.0815
      7 O1          3.3858   -0.8089    1.3203 O.3       1 <0>        -0.2574
      8 C7          3.3277   -2.1247    0.9832 C.ar      1 <0>         0.0611
      9 C8          4.1423   -3.0429    1.6300 C.ar      1 <0>        -0.1101
     10 C9          4.0838   -4.3794    1.2881 C.ar      1 <0>        -0.1078
     11 C10         3.2091   -4.8045    0.2970 C.ar      1 <0>         0.1591
     12 C11         2.3938   -3.8852   -0.3497 C.ar      1 <0>        -0.1332
     13 C12         2.4497   -2.5497   -0.0036 C.ar      1 <0>        -0.0988
     14 N1          3.1496   -6.1603   -0.0507 N.am      1 <0>        -0.6797
     15 C13         4.2617   -6.9196    0.0044 C.2       1 <0>         0.5167
     16 O2          5.3312   -6.4106    0.2658 O.2       1 <0>        -0.4973
     17 C14         4.1765   -8.4010   -0.2587 C.3       1 <0>         0.0245
     18 N2          5.5137   -8.9973   -0.1392 N.3       1 <0>        -0.4961
     19 C15         6.3167   -8.7507   -1.3611 C.3       1 <0>         0.0552
     20 C16         6.7206  -10.1677   -1.8740 C.3       1 <0>         0.0380
     21 C17         6.8494  -10.9187   -0.5005 C.3       1 <0>        -0.1548
     22 C18         5.4269  -10.4847    0.0050 C.3       1 <0>         0.0435
     23 C19         4.5662  -10.9358   -1.2156 C.3       1 <0>        -0.0014
     24 N3          5.4422  -10.7450   -2.3968 N.3       1 <0>        -0.5087
     25 C20         5.6830  -12.0203   -3.0850 C.3       1 <0>         0.0937
     26 C21         4.4297  -12.4472   -3.8047 C.ar      1 <0>        -0.0943
     27 C22         3.4956  -13.2334   -3.1534 C.ar      1 <0>        -0.1326
     28 C23         2.3464  -13.6283   -3.8059 C.ar      1 <0>        -0.0868
     29 C24         2.1265  -13.2323   -5.1276 C.ar      1 <0>        -0.1300
     30 C25         3.0739  -12.4381   -5.7787 C.ar      1 <0>        -0.0869
     31 C26         4.2159  -12.0465   -5.1119 C.ar      1 <0>        -0.1171
     32 C27         0.8999  -13.6511   -5.8325 C.2       1 <0>         0.5180
     33 O3          0.0728  -14.3465   -5.2599 O.co2     1 <0>        -0.6882
     34 O4          0.7104  -13.3028   -6.9893 O.co2     1 <0>        -0.6873
     35 H1          7.3415    2.0177   -0.5393 H         1 <0>         0.1240
     36 H2          5.5776    3.1000    0.7931 H         1 <0>         0.1297
     37 H3          3.7046    1.7674    1.6730 H         1 <0>         0.1312
     38 H4          5.3712   -1.7400   -0.1132 H         1 <0>         0.1301
     39 H5          7.2412   -0.4002   -0.9886 H         1 <0>         0.1256
     40 H6          4.8226   -2.7122    2.4009 H         1 <0>         0.1327
     41 H7          4.7184   -5.0939    1.7911 H         1 <0>         0.1435
     42 H8          1.7133   -4.2152   -1.1207 H         1 <0>         0.1362
     43 H9          1.8127   -1.8351   -0.5036 H         1 <0>         0.1358
     44 H10         2.3079   -6.5526   -0.3312 H         1 <0>         0.4139
     45 H11         3.5072   -8.8612    0.4681 H         1 <0>         0.1058
     46 H12         3.7920   -8.5698   -1.2646 H         1 <0>         0.0850
     47 H13         5.7169   -8.2338   -2.1102 H         1 <0>         0.0650
     48 H14         7.2056   -8.1683   -1.1189 H         1 <0>         0.0853
     49 H15         7.5772  -10.2104   -2.5467 H         1 <0>         0.1206
     50 H16         6.9335  -11.9983   -0.6247 H         1 <0>         0.0788
     51 H17         7.6502  -10.5151    0.1190 H         1 <0>         0.0872
     52 H18         5.1250  -10.8554    0.9845 H         1 <0>         0.1255
     53 H19         4.2885  -11.9851   -1.1159 H         1 <0>         0.0709
     54 H20         3.6751  -10.3140   -1.3009 H         1 <0>         0.0848
     55 H21         6.4917  -11.8972   -3.8055 H         1 <0>         0.0785
     56 H22         5.9596  -12.7807   -2.3547 H         1 <0>         0.0420
     57 H23         3.6669  -13.5388   -2.1317 H         1 <0>         0.1073
     58 H24         1.6186  -14.2425   -3.2965 H         1 <0>         0.1239
     59 H25         2.9104  -12.1283   -6.8003 H         1 <0>         0.1247
     60 H26         4.9470  -11.4290   -5.6125 H         1 <0>         0.1121
@<TRIPOS>BOND
     1    1    6 ar
     2    1    2 ar
     3    1   35 1
     4    2    3 ar
     5    2   36 1
     6    3    4 ar
     7    3   37 1
     8    4    5 ar
     9    4    7 1
    10    5    6 ar
    11    5   38 1
    12    6   39 1
    13    7    8 1
    14    8   13 ar
    15    8    9 ar
    16    9   10 ar
    17    9   40 1
    18   10   11 ar
    19   10   41 1
    20   11   12 ar
    21   11   14 1
    22   12   13 ar
    23   12   42 1
    24   13   43 1
    25   14   15 am
    26   14   44 1
    27   15   16 2
    28   15   17 1
    29   17   18 1
    30   17   45 1
    31   17   46 1
    32   18   22 1
    33   18   19 1
    34   19   20 1
    35   19   47 1
    36   19   48 1
    37   20   24 1
    38   20   21 1
    39   20   49 1
    40   21   22 1
    41   21   50 1
    42   21   51 1
    43   22   23 1
    44   22   52 1
    45   23   24 1
    46   23   53 1
    47   23   54 1
    48   24   25 1
    49   25   26 1
    50   25   55 1
    51   25   56 1
    52   26   31 ar
    53   26   27 ar
    54   27   28 ar
    55   27   57 1
    56   28   29 ar
    57   28   58 1
    58   29   30 ar
    59   29   32 1
    60   30   31 ar
    61   30   59 1
    62   31   60 1
    63   32   33 2
    64   32   34 1
@<TRIPOS>MOLECULE
CHEMBL480719
   66    69     0     0     0
SMALL
USER_CHARGES

@<TRIPOS>ATOM
      1 C1         -0.8933   -0.3301    0.0662 C.3       1 <0>         0.0153
      2 N1          0.1417   -1.3454   -0.1705 N.3       1 <0>        -0.5374
      3 C2          0.8750   -1.6478    1.0659 C.3       1 <0>         0.0284
      4 C3          1.6348   -2.9652    0.8989 C.3       1 <0>         0.0252
      5 H1          2.3351   -2.8864    0.0674 H         1 <0>         0.1321
      6 C4          2.3979   -3.2995    2.1980 C.3       1 <0>        -0.1332
      7 C5          1.4423   -4.2849    2.9209 C.3       1 <0>        -0.1410
      8 C6          0.8421   -5.0704    1.7283 C.3       1 <0>        -0.0090
      9 N2          0.6841   -4.0647    0.6516 N.4       1 <0>        -0.3795
     10 C7          0.9693   -4.6813   -0.6509 C.3       1 <0>         0.0610
     11 C8         -0.0782   -5.7212   -0.9546 C.ar      1 <0>        -0.1791
     12 C9          0.1119   -7.0297   -0.5464 C.ar      1 <0>        -0.1126
     13 C10        -0.8423   -7.9869   -0.8212 C.ar      1 <0>        -0.0874
     14 C11        -2.0033   -7.6325   -1.5131 C.ar      1 <0>        -0.0914
     15 C12        -2.1886   -6.3094   -1.9218 C.ar      1 <0>        -0.0849
     16 C13        -1.2282   -5.3618   -1.6354 C.ar      1 <0>        -0.1010
     17 C14        -3.0284   -8.6509   -1.8113 C.2       1 <0>         0.5098
     18 O1         -2.8630   -9.8083   -1.4526 O.co2     1 <0>        -0.6748
     19 O2         -4.0435   -8.3376   -2.4171 O.co2     1 <0>        -0.6728
     20 C15         1.0594   -0.9229   -1.2369 C.3       1 <0>         0.0259
     21 C16         0.3140   -0.8591   -2.5451 C.2       1 <0>         0.5069
     22 O3         -0.8658   -1.1381   -2.5851 O.2       1 <0>        -0.4937
     23 N3          0.9582   -0.4920   -3.6706 N.am      1 <0>        -0.6680
     24 C17         0.2637   -0.4266   -4.8856 C.ar      1 <0>         0.1040
     25 C18         0.9088   -0.7481   -6.0724 C.ar      1 <0>        -0.1019
     26 C19         0.2239   -0.6835   -7.2696 C.ar      1 <0>        -0.1738
     27 C20        -1.1087   -0.2972   -7.2868 C.ar      1 <0>         0.1176
     28 C21        -1.7537    0.0242   -6.1012 C.ar      1 <0>        -0.1258
     29 C22        -1.0714   -0.0456   -4.9028 C.ar      1 <0>        -0.0783
     30 O4         -1.7824   -0.2333   -8.4659 O.3       1 <0>        -0.2570
     31 C23        -1.1532   -0.6781   -9.5851 C.ar      1 <0>         0.0802
     32 C24        -1.0568   -2.0399   -9.8334 C.ar      1 <0>        -0.1307
     33 C25        -0.4166   -2.4894  -10.9719 C.ar      1 <0>        -0.1043
     34 C26         0.1283   -1.5838  -11.8635 C.ar      1 <0>        -0.1168
     35 C27         0.0336   -0.2262  -11.6184 C.ar      1 <0>        -0.1059
     36 C28        -0.6110    0.2288  -10.4845 C.ar      1 <0>        -0.1232
     37 H2         -0.4393    0.5542    0.5133 H         1 <0>         0.0347
     38 H3         -1.3601   -0.0595   -0.8809 H         1 <0>         0.0960
     39 H4         -1.6485   -0.7318    0.7418 H         1 <0>         0.0791
     40 H5          1.5817   -0.8447    1.2749 H         1 <0>         0.0849
     41 H6          0.1710   -1.7367    1.8933 H         1 <0>         0.1054
     42 H7          3.3496   -3.7807    1.9729 H         1 <0>         0.1008
     43 H8          2.5508   -2.4017    2.7969 H         1 <0>         0.1093
     44 H9          1.9955   -4.9478    3.5863 H         1 <0>         0.1149
     45 H10         0.6656   -3.7474    3.4649 H         1 <0>         0.0958
     46 H11         1.5245   -5.8592    1.4115 H         1 <0>         0.1302
     47 H12        -0.1260   -5.4913    1.9998 H         1 <0>         0.1335
     48 H13         0.9562   -3.9152   -1.4262 H         1 <0>         0.1246
     49 H14         1.9517   -5.1526   -0.6225 H         1 <0>         0.1235
     50 H15         1.0098   -7.3021   -0.0116 H         1 <0>         0.1179
     51 H16        -0.6923   -9.0079   -0.5027 H         1 <0>         0.1364
     52 H17        -3.0836   -6.0284   -2.4570 H         1 <0>         0.1364
     53 H18        -1.3721   -4.3377   -1.9468 H         1 <0>         0.1258
     54 H19         1.4628    0.0617   -1.0002 H         1 <0>         0.0809
     55 H20         1.8761   -1.6401   -1.3188 H         1 <0>         0.1038
     56 H21         1.9026   -0.2730   -3.6394 H         1 <0>         0.4098
     57 H22         1.9461   -1.0485   -6.0592 H         1 <0>         0.1290
     58 H23         0.7256   -0.9332   -8.1928 H         1 <0>         0.1336
     59 H24        -2.7910    0.3248   -6.1152 H         1 <0>         0.1385
     60 H25        -1.5749    0.2003   -3.9795 H         1 <0>         0.1442
     61 H26        -1.4816   -2.7477   -9.1371 H         1 <0>         0.1317
     62 H27        -0.3412   -3.5492  -11.1657 H         1 <0>         0.1321
     63 H28         0.6291   -1.9373  -12.7526 H         1 <0>         0.1296
     64 H29         0.4603    0.4791  -12.3161 H         1 <0>         0.1320
     65 H30        -0.6886    1.2894  -10.2958 H         1 <0>         0.1319
     66 H31        -0.2589   -3.7059    0.6569 H         1 <0>         0.4305
@<TRIPOS>BOND
     1    1    2 1
     2    1   37 1
     3    1   38 1
     4    1   39 1
     5    2    3 1
     6    2   20 1
     7    3    4 1
     8    3   40 1
     9    3   41 1
    10    4    5 1
    11    4    9 1
    12    4    6 1
    13    6    7 1
    14    6   42 1
    15    6   43 1
    16    7    8 1
    17    7   44 1
    18    7   45 1
    19    8    9 1
    20    8   46 1
    21    8   47 1
    22    9   10 1
    23    9   66 1
    24   10   11 1
    25   10   48 1
    26   10   49 1
    27   11   16 ar
    28   11   12 ar
    29   12   13 ar
    30   12   50 1
    31   13   14 ar
    32   13   51 1
    33   14   15 ar
    34   14   17 1
    35   15   16 ar
    36   15   52 1
    37   16   53 1
    38   17   18 2
    39   17   19 1
    40   20   21 1
    41   20   54 1
    42   20   55 1
    43   21   22 2
    44   21   23 am
    45   23   24 1
    46   23   56 1
    47   24   29 ar
    48   24   25 ar
    49   25   26 ar
    50   25   57 1
    51   26   27 ar
    52   26   58 1
    53   27   28 ar
    54   27   30 1
    55   28   29 ar
    56   28   59 1
    57   29   60 1
    58   30   31 1
    59   31   36 ar
    60   31   32 ar
    61   32   33 ar
    62   32   61 1
    63   33   34 ar
    64   33   62 1
    65   34   35 ar
    66   34   63 1
    67   35   36 ar
    68   35   64 1
    69   36   65 1
@<TRIPOS>MOLECULE
CHEMBL480719__1
   66    69     0     0     0
SMALL
USER_CHARGES

@<TRIPOS>ATOM
      1 C1          0.4043   -0.1395   -0.5804 C.3       1 <0>        -0.0572
      2 N1          0.1525   -1.1882    0.4170 N.4       1 <0>        -0.3704
      3 C2         -1.2824   -1.5013    0.4468 C.3       1 <0>         0.0086
      4 C3         -1.5161   -2.7412    1.3122 C.3       1 <0>         0.0334
      5 H1         -1.1990   -2.5435    2.3362 H         1 <0>         0.0838
      6 C4         -3.0111   -3.1228    1.2900 C.3       1 <0>        -0.1281
      7 C5         -3.0727   -4.2317    0.2067 C.3       1 <0>        -0.1334
      8 C6         -1.7232   -4.9596    0.4270 C.3       1 <0>         0.0459
      9 N2         -0.7618   -3.8840    0.7654 N.3       1 <0>        -0.5358
     10 C7          0.2461   -4.3566    1.7239 C.3       1 <0>         0.0958
     11 C8          1.1541   -5.3517    1.0483 C.ar      1 <0>        -0.1140
     12 C9          0.8339   -6.6978    1.0648 C.ar      1 <0>        -0.1243
     13 C10         1.6604   -7.6143    0.4489 C.ar      1 <0>        -0.0828
     14 C11         2.8232   -7.1805   -0.1929 C.ar      1 <0>        -0.1159
     15 C12         3.1398   -5.8197   -0.2059 C.ar      1 <0>        -0.0841
     16 C13         2.3012   -4.9141    0.4097 C.ar      1 <0>        -0.1202
     17 C14         3.7126   -8.1547   -0.8535 C.2       1 <0>         0.5136
     18 O1          3.4329   -9.3452   -0.8401 O.co2     1 <0>        -0.6807
     19 O2          4.7296   -7.7719   -1.4145 O.co2     1 <0>        -0.6817
     20 C15         0.5784   -0.7167    1.7415 C.3       1 <0>        -0.0358
     21 C16         2.0715   -0.5126    1.7459 C.2       1 <0>         0.4985
     22 O3          2.7173   -0.7377    0.7442 O.2       1 <0>        -0.5020
     23 N3          2.6892   -0.0798    2.8629 N.am      1 <0>        -0.6428
     24 C17         4.0801    0.0872    2.8742 C.ar      1 <0>         0.0854
     25 C18         4.8066   -0.2145    4.0184 C.ar      1 <0>        -0.0885
     26 C19         6.1774   -0.0496    4.0290 C.ar      1 <0>        -0.1747
     27 C20         6.8290    0.4175    2.8965 C.ar      1 <0>         0.1302
     28 C21         6.1036    0.7191    1.7529 C.ar      1 <0>        -0.1282
     29 C22         4.7334    0.5492    1.7393 C.ar      1 <0>        -0.0706
     30 O4          8.1787    0.5801    2.9076 O.3       1 <0>        -0.2541
     31 C23         8.8638    0.1524    4.0004 C.ar      1 <0>         0.0753
     32 C24         9.1341   -1.1984    4.1665 C.ar      1 <0>        -0.1292
     33 C25         9.8307   -1.6305    5.2784 C.ar      1 <0>        -0.1034
     34 C26        10.2581   -0.7184    6.2256 C.ar      1 <0>        -0.1143
     35 C27         9.9900    0.6283    6.0625 C.ar      1 <0>        -0.1060
     36 C28         9.2992    1.0664    4.9494 C.ar      1 <0>        -0.1221
     37 H2          1.4557    0.1461   -0.5497 H         1 <0>         0.1371
     38 H3          0.1588   -0.5160   -1.5734 H         1 <0>         0.1276
     39 H4         -0.2149    0.7296   -0.3580 H         1 <0>         0.1173
     40 H5         -1.8299   -0.6571    0.8660 H         1 <0>         0.1316
     41 H6         -1.6333   -1.6945   -0.5670 H         1 <0>         0.1398
     42 H7         -3.3238   -3.5127    2.2587 H         1 <0>         0.0859
     43 H8         -3.6229   -2.2680    1.0017 H         1 <0>         0.0846
     44 H9         -3.9123   -4.9039    0.3833 H         1 <0>         0.0859
     45 H10        -3.1244   -3.7990   -0.7924 H         1 <0>         0.0791
     46 H11        -1.8041   -5.6675    1.2518 H         1 <0>         0.0616
     47 H12        -1.4148   -5.4714   -0.4846 H         1 <0>         0.0959
     48 H13         0.8345   -3.5106    2.0792 H         1 <0>         0.0642
     49 H14        -0.2512   -4.8336    2.5685 H         1 <0>         0.0560
     50 H15        -0.0652   -7.0317    1.5613 H         1 <0>         0.1103
     51 H16         1.4097   -8.6646    0.4631 H         1 <0>         0.1291
     52 H17         4.0369   -5.4773   -0.7001 H         1 <0>         0.1275
     53 H18         2.5423   -3.8615    0.3967 H         1 <0>         0.1039
     54 H19         0.0820    0.2269    1.9682 H         1 <0>         0.1614
     55 H20         0.3108   -1.4581    2.4944 H         1 <0>         0.1555
     56 H21         2.1707    0.1160    3.6589 H         1 <0>         0.4172
     57 H22         4.2995   -0.5777    4.9000 H         1 <0>         0.1328
     58 H23         6.7425   -0.2839    4.9190 H         1 <0>         0.1375
     59 H24         6.6113    1.0826    0.8717 H         1 <0>         0.1417
     60 H25         4.1693    0.7798    0.8476 H         1 <0>         0.1422
     61 H26         8.7999   -1.9114    3.4273 H         1 <0>         0.1327
     62 H27        10.0414   -2.6818    5.4081 H         1 <0>         0.1335
     63 H28        10.8019   -1.0583    7.0945 H         1 <0>         0.1307
     64 H29        10.3246    1.3387    6.8039 H         1 <0>         0.1327
     65 H30         9.0939    2.1188    4.8202 H         1 <0>         0.1321
     66 H31         0.6727   -2.0173    0.1719 H         1 <0>         0.4423
@<TRIPOS>BOND
     1    1    2 1
     2    1   37 1
     3    1   38 1
     4    1   39 1
     5    2    3 1
     6    2   20 1
     7    2   66 1
     8    3    4 1
     9    3   40 1
    10    3   41 1
    11    4    5 1
    12    4    9 1
    13    4    6 1
    14    6    7 1
    15    6   42 1
    16    6   43 1
    17    7    8 1
    18    7   44 1
    19    7   45 1
    20    8    9 1
    21    8   46 1
    22    8   47 1
    23    9   10 1
    24   10   11 1
    25   10   48 1
    26   10   49 1
    27   11   16 ar
    28   11   12 ar
    29   12   13 ar
    30   12   50 1
    31   13   14 ar
    32   13   51 1
    33   14   15 ar
    34   14   17 1
    35   15   16 ar
    36   15   52 1
    37   16   53 1
    38   17   18 2
    39   17   19 1
    40   20   21 1
    41   20   54 1
    42   20   55 1
    43   21   22 2
    44   21   23 am
    45   23   24 1
    46   23   56 1
    47   24   29 ar
    48   24   25 ar
    49   25   26 ar
    50   25   57 1
    51   26   27 ar
    52   26   58 1
    53   27   28 ar
    54   27   30 1
    55   28   29 ar
    56   28   59 1
    57   29   60 1
    58   30   31 1
    59   31   36 ar
    60   31   32 ar
    61   32   33 ar
    62   32   61 1
    63   33   34 ar
    64   33   62 1
    65   34   35 ar
    66   34   63 1
    67   35   36 ar
    68   35   64 1
    69   36   65 1
@<TRIPOS>MOLECULE
CHEMBL479383
   52    55     0     0     0
SMALL
USER_CHARGES

@<TRIPOS>ATOM
      1 C1         -0.7769   -1.5640   -4.1921 C.ar      1 <0>        -0.1022
      2 C2          0.2236   -1.4876   -5.1504 C.ar      1 <0>        -0.0871
      3 C3          1.5001   -1.9127   -4.8317 C.ar      1 <0>        -0.0649
      4 C4          1.7573   -2.4026   -3.5756 C.ar      1 <0>        -0.1337
      5 C5          0.7639   -2.4953   -2.5746 C.ar      1 <0>         0.0945
      6 C6         -0.5293   -2.0517   -2.9356 C.ar      1 <0>        -0.0581
      7 N1          1.1726   -2.9992   -1.3897 N.2       1 <0>        -0.5013
      8 C7          2.4092   -3.3799   -1.1739 C.2       1 <0>         0.3264
      9 S1          3.1919   -3.0415   -2.7446 S.3       1 <0>        -0.0322
     10 O1          2.9537   -3.8977   -0.0484 O.3       1 <0>        -0.1919
     11 C8          4.2478   -4.3100   -0.0970 C.ar      1 <0>         0.1020
     12 C9          5.2756   -3.3788   -0.0584 C.ar      1 <0>        -0.1134
     13 C10         6.5902   -3.8004   -0.1079 C.ar      1 <0>        -0.0803
     14 C11         6.8820   -5.1491   -0.1964 C.ar      1 <0>        -0.1488
     15 C12         5.8595   -6.0791   -0.2351 C.ar      1 <0>        -0.0762
     16 C13         4.5434   -5.6631   -0.1796 C.ar      1 <0>        -0.0990
     17 C14         8.3170   -5.6061   -0.2514 C.3       1 <0>         0.0425
     18 N2          8.8091   -5.8398    1.1129 N.4       1 <0>        -0.3838
     19 C15         8.8250   -4.5704    1.8498 C.3       1 <0>        -0.0093
     20 C16         9.2595   -4.8209    3.2954 C.3       1 <0>        -0.1538
     21 C17        10.6627   -5.4343    3.3019 C.3       1 <0>         0.1373
     22 C18        10.6513   -6.7190    2.4684 C.3       1 <0>        -0.1616
     23 C19        10.1652   -6.3982    1.0534 C.3       1 <0>        -0.0024
     24 N3         11.0543   -5.7469    4.6786 N.am      1 <0>        -0.7317
     25 C20        12.3591   -5.8102    5.0101 C.2       1 <0>         0.5157
     26 O2         13.2091   -5.6083    4.1688 O.2       1 <0>        -0.5063
     27 C21        12.7620   -6.1318    6.4262 C.3       1 <0>         0.0587
     28 O3         14.1875   -6.1405    6.5256 O.3       1 <0>        -0.5486
     29 H1         -1.7725   -1.2274   -4.4407 H         1 <0>         0.1422
     30 H2          0.0074   -1.1003   -6.1351 H         1 <0>         0.1457
     31 H3          2.2897   -1.8600   -5.5667 H         1 <0>         0.1380
     32 H4         -1.3307   -2.0977   -2.2131 H         1 <0>         0.1396
     33 H5          5.0482   -2.3252    0.0100 H         1 <0>         0.1495
     34 H6          7.3906   -3.0760   -0.0779 H         1 <0>         0.1458
     35 H7          6.0901   -7.1319   -0.3046 H         1 <0>         0.1469
     36 H8          3.7452   -6.3901   -0.2053 H         1 <0>         0.1519
     37 H9          8.3820   -6.5311   -0.8244 H         1 <0>         0.1433
     38 H10         8.9248   -4.8385   -0.7303 H         1 <0>         0.1415
     39 H11         9.5251   -3.8835    1.3743 H         1 <0>         0.1348
     40 H12         7.8264   -4.1335    1.8416 H         1 <0>         0.1369
     41 H13         9.2724   -3.8770    3.8404 H         1 <0>         0.1204
     42 H14         8.5599   -5.5075    3.7720 H         1 <0>         0.0952
     43 H15        11.3717   -4.7270    2.8717 H         1 <0>         0.1063
     44 H16        11.6591   -7.1318    2.4223 H         1 <0>         0.1187
     45 H17         9.9806   -7.4450    2.9279 H         1 <0>         0.0917
     46 H18        10.1561   -7.3106    0.4573 H         1 <0>         0.1369
     47 H19        10.8367   -5.6723    0.5949 H         1 <0>         0.1344
     48 H20        10.3745   -5.9084    5.3514 H         1 <0>         0.4076
     49 H21        12.3554   -5.3775    7.0999 H         1 <0>         0.0822
     50 H22        12.3726   -7.1121    6.7010 H         1 <0>         0.0815
     51 H23        14.5188   -6.3409    7.4117 H         1 <0>         0.3956
     52 H24         8.1984   -6.4914    1.5826 H         1 <0>         0.4230
@<TRIPOS>BOND
     1    1    6 ar
     2    1    2 ar
     3    1   29 1
     4    2    3 ar
     5    2   30 1
     6    3    4 ar
     7    3   31 1
     8    4    9 1
     9    4    5 ar
    10    5    6 ar
    11    5    7 1
    12    6   32 1
    13    7    8 2
    14    8    9 1
    15    8   10 1
    16   10   11 1
    17   11   16 ar
    18   11   12 ar
    19   12   13 ar
    20   12   33 1
    21   13   14 ar
    22   13   34 1
    23   14   15 ar
    24   14   17 1
    25   15   16 ar
    26   15   35 1
    27   16   36 1
    28   17   18 1
    29   17   37 1
    30   17   38 1
    31   18   23 1
    32   18   19 1
    33   18   52 1
    34   19   20 1
    35   19   39 1
    36   19   40 1
    37   20   21 1
    38   20   41 1
    39   20   42 1
    40   21   22 1
    41   21   24 1
    42   21   43 1
    43   22   23 1
    44   22   44 1
    45   22   45 1
    46   23   46 1
    47   23   47 1
    48   24   25 am
    49   24   48 1
    50   25   26 2
    51   25   27 1
    52   27   28 1
    53   27   49 1
    54   27   50 1
    55   28   51 1
@<TRIPOS>MOLECULE
CHEMBL419305
   45    46     0     0     0
SMALL
USER_CHARGES

@<TRIPOS>ATOM
      1 C1          4.6546    5.4042   -0.4541 C.ar      1 <0>        -0.1280
      2 C2          6.0135    5.1680   -0.5463 C.ar      1 <0>        -0.1065
      3 C3          6.4968    3.8749   -0.4737 C.ar      1 <0>        -0.1233
      4 C4          5.6213    2.8181   -0.3083 C.ar      1 <0>        -0.0489
      5 C5          4.2624    3.0543   -0.2151 C.ar      1 <0>        -0.0984
      6 C6          3.7790    4.3473   -0.2892 C.ar      1 <0>        -0.1102
      7 C7          6.1481    1.4083   -0.2301 C.3       1 <0>        -0.0659
      8 C8          6.3037    1.0027    1.2370 C.3       1 <0>        -0.0872
      9 H1          5.3715    1.1951    1.7680 H         1 <0>         0.1016
     10 C9          7.4312    1.8171    1.8744 C.3       1 <0>        -0.1175
     11 C10         6.9367    3.2079    2.1779 C.2       1 <0>         0.5243
     12 O1          5.7592    3.4725    2.0580 O.2       1 <0>        -0.4919
     13 N1          7.8030    4.1578    2.5827 N.am      1 <0>        -0.6010
     14 O2          7.3383    5.4646    2.8679 O.3       1 <0>        -0.3185
     15 C11         6.6353   -0.4650    1.3199 C.2       1 <0>         0.4788
     16 O3          7.1892   -1.0150    0.3916 O.2       1 <0>        -0.4375
     17 N2          6.3164   -1.1665    2.4256 N.am      1 <0>        -0.6005
     18 C12         5.5907   -0.5295    3.5329 C.3       1 <0>         0.1048
     19 C13         4.3472   -1.3650    3.8529 C.3       1 <0>        -0.1323
     20 C14         4.7659   -2.8116    4.1256 C.3       1 <0>        -0.1165
     21 C15         5.4321   -3.3955    2.8777 C.3       1 <0>        -0.1144
     22 C16         6.6825   -2.5845    2.5440 C.3       1 <0>         0.0764
     23 H2          7.4170   -2.7070    3.3401 H         1 <0>         0.0570
     24 C17         7.2620   -3.0673    1.2394 C.2       1 <0>         0.5052
     25 O4          8.3021   -3.7035    1.2326 O.co2     1 <0>        -0.7085
     26 O5          6.6908   -2.8218    0.1906 O.co2     1 <0>        -0.6470
     27 H3          4.2774    6.4148   -0.5063 H         1 <0>         0.1084
     28 H4          6.6976    5.9937   -0.6756 H         1 <0>         0.1072
     29 H5          7.5584    3.6903   -0.5465 H         1 <0>         0.1076
     30 H6          3.5784    2.2286   -0.0862 H         1 <0>         0.1133
     31 H7          2.7174    4.5318   -0.2167 H         1 <0>         0.1109
     32 H8          5.4494    0.7316   -0.7220 H         1 <0>         0.0824
     33 H9          7.1169    1.3544   -0.7267 H         1 <0>         0.0791
     34 H10         7.7499    1.3350    2.7986 H         1 <0>         0.1006
     35 H11         8.2735    1.8734    1.1848 H         1 <0>         0.1004
     36 H12         8.7447    3.9462    2.6786 H         1 <0>         0.4039
     37 H13         8.0323    6.0758    3.1507 H         1 <0>         0.3797
     38 H14         6.2341   -0.4806    4.4114 H         1 <0>         0.0564
     39 H15         5.2896    0.4768    3.2415 H         1 <0>         0.0803
     40 H16         3.8519   -0.9574    4.7342 H         1 <0>         0.0652
     41 H17         3.6627   -1.3381    3.0051 H         1 <0>         0.0652
     42 H18         5.4695   -2.8352    4.9577 H         1 <0>         0.0577
     43 H19         3.8857   -3.4030    4.3777 H         1 <0>         0.0570
     44 H20         5.7090   -4.4330    3.0648 H         1 <0>         0.0644
     45 H21         4.7374   -3.3494    2.0391 H         1 <0>         0.0662
@<TRIPOS>BOND
     1    1    6 ar
     2    1    2 ar
     3    1   27 1
     4    2    3 ar
     5    2   28 1
     6    3    4 ar
     7    3   29 1
     8    4    5 ar
     9    4    7 1
    10    5    6 ar
    11    5   30 1
    12    6   31 1
    13    7    8 1
    14    7   32 1
    15    7   33 1
    16    8    9 1
    17    8   10 1
    18    8   15 1
    19   10   11 1
    20   10   34 1
    21   10   35 1
    22   11   12 2
    23   11   13 am
    24   13   14 1
    25   13   36 1
    26   14   37 1
    27   15   16 2
    28   15   17 am
    29   17   22 1
    30   17   18 1
    31   18   19 1
    32   18   38 1
    33   18   39 1
    34   19   20 1
    35   19   40 1
    36   19   41 1
    37   20   21 1
    38   20   42 1
    39   20   43 1
    40   21   22 1
    41   21   44 1
    42   21   45 1
    43   22   23 1
    44   22   24 1
    45   24   25 2
    46   24   26 1
@<TRIPOS>MOLECULE
CHEMBL14387
   45    48     0     0     0
SMALL
USER_CHARGES

@<TRIPOS>ATOM
      1 C1         -0.0167    1.3781    0.0096 C.ar      1 <0>        -0.1236
      2 C2          1.1709    2.0855    0.0021 C.ar      1 <0>        -0.1175
      3 C3          2.3773    1.4107   -0.0130 C.ar      1 <0>        -0.1152
      4 C4          2.3960    0.0285   -0.0201 C.ar      1 <0>        -0.0777
      5 C5          1.2084   -0.6789   -0.0117 C.ar      1 <0>        -0.1157
      6 C6          0.0021   -0.0041    0.0020 C.ar      1 <0>        -0.1178
      7 C7          3.7112   -0.7071   -0.0376 C.3       1 <0>        -0.0399
      8 C8          4.1644   -0.9594    1.3773 C.ar      1 <0>        -0.1076
      9 C9          4.9522   -0.0267    2.0264 C.ar      1 <0>        -0.0733
     10 C10         5.3694   -0.2559    3.3232 C.ar      1 <0>        -0.1437
     11 C11         4.9969   -1.4228    3.9745 C.ar      1 <0>         0.1235
     12 C12         4.2060   -2.3568    3.3213 C.ar      1 <0>        -0.2027
     13 C13         3.7871   -2.1206    2.0262 C.ar      1 <0>        -0.0727
     14 O1          5.4064   -1.6507    5.2502 O.3       1 <0>        -0.3108
     15 C14         4.9849   -2.8733    5.8582 C.3       1 <0>         0.0431
     16 C15         5.5391   -2.9523    7.2821 C.3       1 <0>         0.1132
     17 N1          5.1069   -4.2057    7.9054 N.pl3     1 <0>        -0.4844
     18 C16         4.0160   -4.3772    8.7001 C.2       1 <0>         0.2875
     19 N2          3.9311   -5.6201    9.0820 N.2       1 <0>        -0.4781
     20 C17         4.9582   -6.3274    8.5599 C.ar      1 <0>         0.0406
     21 C18         5.7254   -5.4289    7.7911 C.ar      1 <0>         0.0781
     22 C19         6.8507   -5.9076    7.1331 C.ar      1 <0>        -0.1287
     23 C20         7.1786   -7.2457    7.2507 C.ar      1 <0>         0.1071
     24 N3          6.4475   -8.0720    7.9716 N.ar      1 <0>        -0.4428
     25 C21         5.3665   -7.6716    8.6298 C.ar      1 <0>         0.2608
     26 C22         4.6066   -8.6116    9.3975 C.1       1 <0>         0.2688
     27 N4          4.0038   -9.3574   10.0066 N.1       1 <0>        -0.3761
     28 H1         -0.9591    1.9053    0.0259 H         1 <0>         0.1212
     29 H2          1.1563    3.1654    0.0076 H         1 <0>         0.1220
     30 H3          3.3051    1.9634   -0.0196 H         1 <0>         0.1208
     31 H4          1.2231   -1.7588   -0.0176 H         1 <0>         0.1197
     32 H5         -0.9258   -0.5567    0.0082 H         1 <0>         0.1216
     33 H6          3.5884   -1.6586   -0.5549 H         1 <0>         0.0824
     34 H7          4.4573   -0.1052   -0.5563 H         1 <0>         0.0835
     35 H8          5.2420    0.8815    1.5189 H         1 <0>         0.1305
     36 H9          5.9853    0.4726    3.8295 H         1 <0>         0.1327
     37 H10         3.9147   -3.2660    3.8262 H         1 <0>         0.1256
     38 H11         3.1678   -2.8454    1.5188 H         1 <0>         0.1251
     39 H12         3.8958   -2.9068    5.8898 H         1 <0>         0.0725
     40 H13         5.3576   -3.7160    5.2759 H         1 <0>         0.0708
     41 H14         6.6281   -2.9189    7.2505 H         1 <0>         0.1085
     42 H15         5.1664   -2.1096    7.8643 H         1 <0>         0.1169
     43 H16         3.3218   -3.5967    8.9748 H         1 <0>         0.2271
     44 H17         7.4607   -5.2443    6.5379 H         1 <0>         0.1456
     45 H18         8.0528   -7.6221    6.7403 H         1 <0>         0.1792
@<TRIPOS>BOND
     1    1    6 ar
     2    1    2 ar
     3    1   28 1
     4    2    3 ar
     5    2   29 1
     6    3    4 ar
     7    3   30 1
     8    4    5 ar
     9    4    7 1
    10    5    6 ar
    11    5   31 1
    12    6   32 1
    13    7    8 1
    14    7   33 1
    15    7   34 1
    16    8   13 ar
    17    8    9 ar
    18    9   10 ar
    19    9   35 1
    20   10   11 ar
    21   10   36 1
    22   11   12 ar
    23   11   14 1
    24   12   13 ar
    25   12   37 1
    26   13   38 1
    27   14   15 1
    28   15   16 1
    29   15   39 1
    30   15   40 1
    31   16   17 1
    32   16   41 1
    33   16   42 1
    34   17   21 1
    35   17   18 1
    36   18   19 2
    37   18   43 1
    38   19   20 1
    39   20   25 ar
    40   20   21 ar
    41   21   22 ar
    42   22   23 ar
    43   22   44 1
    44   23   24 ar
    45   23   45 1
    46   24   25 ar
    47   25   26 1
    48   26   27 3
@<TRIPOS>MOLECULE
CHEMBL463520
   48    49     0     0     0
SMALL
USER_CHARGES

@<TRIPOS>ATOM
      1 C1         -0.0187    1.5258    0.0104 C.3       1 <0>        -0.1438
      2 C2          0.0021   -0.0041    0.0020 C.3       1 <0>        -0.0907
      3 H1         -1.0205   -0.3814    0.0098 H         1 <0>         0.1044
      4 C3          0.7421   -0.5109    1.2415 C.3       1 <0>        -0.0423
      5 S1         -0.1871   -0.0517    2.7303 S.3       1 <0>        -0.2534
      6 C4          0.7074   -0.4901   -1.2379 C.2       1 <0>         0.5217
      7 O1          1.7039   -1.1744   -1.1398 O.2       1 <0>        -0.5485
      8 N1          0.2309   -0.1642   -2.4557 N.am      1 <0>        -0.6876
      9 C5          0.9167   -0.6367   -3.6611 C.3       1 <0>         0.0959
     10 H2          1.3241   -1.6315   -3.4809 H         1 <0>         0.0912
     11 C6         -0.0768   -0.6952   -4.8232 C.3       1 <0>        -0.0724
     12 S2         -1.4256   -1.8352   -4.4087 S.3       1 <0>        -0.2512
     13 C7         -2.5014   -1.7914   -5.8686 C.3       1 <0>        -0.0564
     14 C8         -3.6780   -2.7080   -5.6533 C.ar      1 <0>        -0.0597
     15 C9         -3.5957   -4.0356   -6.0325 C.ar      1 <0>        -0.0987
     16 C10        -4.6703   -4.8796   -5.8376 C.ar      1 <0>        -0.1087
     17 C11        -5.8396   -4.3919   -5.2577 C.ar      1 <0>        -0.0498
     18 C12        -5.9170   -3.0536   -4.8775 C.ar      1 <0>        -0.1088
     19 C13        -4.8344   -2.2199   -5.0719 C.ar      1 <0>        -0.0985
     20 C14        -6.9983   -5.2944   -5.0460 C.ar      1 <0>        -0.0398
     21 C15        -6.9190   -6.6339   -5.4213 C.ar      1 <0>        -0.1123
     22 C16        -7.9996   -7.4690   -5.2218 C.ar      1 <0>        -0.1180
     23 C17        -9.1600   -6.9782   -4.6508 C.ar      1 <0>        -0.1230
     24 C18        -9.2444   -5.6492   -4.2768 C.ar      1 <0>        -0.1180
     25 C19        -8.1676   -4.8067   -4.4661 C.ar      1 <0>        -0.1121
     26 C20         2.0372    0.3104   -4.0054 C.2       1 <0>         0.4982
     27 O2          3.0348   -0.1052   -4.5698 O.co2     1 <0>        -0.6861
     28 O3          1.9461    1.4921   -3.7195 O.co2     1 <0>        -0.6808
     29 H3          1.0039    1.9031    0.0027 H         1 <0>         0.0649
     30 H4         -0.5459    1.8868   -0.8726 H         1 <0>         0.0654
     31 H5         -0.5289    1.8773    0.9072 H         1 <0>         0.0734
     32 H6          0.8346   -1.5958    1.1912 H         1 <0>         0.0915
     33 H7          1.7350   -0.0630    1.2804 H         1 <0>         0.0910
     34 H8          0.5521   -0.5447    3.7401 H         1 <0>         0.0857
     35 H9         -0.5660    0.3831   -2.5342 H         1 <0>         0.3961
     36 H10        -0.4843    0.2996   -5.0033 H         1 <0>         0.0844
     37 H11         0.4334   -1.0467   -5.7200 H         1 <0>         0.0938
     38 H12        -2.8580   -0.7735   -6.0268 H         1 <0>         0.0890
     39 H13        -1.9403   -2.1198   -6.7435 H         1 <0>         0.0888
     40 H14        -2.6890   -4.4125   -6.4823 H         1 <0>         0.1274
     41 H15        -4.6050   -5.9159   -6.1345 H         1 <0>         0.1255
     42 H16        -6.8211   -2.6704   -4.4279 H         1 <0>         0.1258
     43 H17        -4.8916   -1.1836   -4.7733 H         1 <0>         0.1276
     44 H18        -6.0137   -7.0180   -5.8679 H         1 <0>         0.1256
     45 H19        -7.9392   -8.5075   -5.5123 H         1 <0>         0.1231
     46 H20       -10.0033   -7.6351   -4.4968 H         1 <0>         0.1211
     47 H21       -10.1529   -5.2712   -3.8317 H         1 <0>         0.1232
     48 H22        -8.2330   -3.7703   -4.1696 H         1 <0>         0.1258
@<TRIPOS>BOND
     1    1    2 1
     2    1   29 1
     3    1   30 1
     4    1   31 1
     5    2    3 1
     6    2    4 1
     7    2    6 1
     8    4    5 1
     9    4   32 1
    10    4   33 1
    11    5   34 1
    12    6    7 2
    13    6    8 am
    14    8    9 1
    15    8   35 1
    16    9   10 1
    17    9   11 1
    18    9   26 1
    19   11   12 1
    20   11   36 1
    21   11   37 1
    22   12   13 1
    23   13   14 1
    24   13   38 1
    25   13   39 1
    26   14   19 ar
    27   14   15 ar
    28   15   16 ar
    29   15   40 1
    30   16   17 ar
    31   16   41 1
    32   17   18 ar
    33   17   20 1
    34   18   19 ar
    35   18   42 1
    36   19   43 1
    37   20   25 ar
    38   20   21 ar
    39   21   22 ar
    40   21   44 1
    41   22   23 ar
    42   22   45 1
    43   23   24 ar
    44   23   46 1
    45   24   25 ar
    46   24   47 1
    47   25   48 1
    48   26   27 2
    49   26   28 1
@<TRIPOS>MOLECULE
CHEMBL502817
   58    60     0     0     0
SMALL
USER_CHARGES

@<TRIPOS>ATOM
      1 C1          0.0093    1.2640   -0.8348 C.3       1 <0>        -0.1396
      2 C2          0.0059   -0.0129    0.0082 C.3       1 <0>        -0.0906
      3 H1          0.4049    0.2048    0.9989 H         1 <0>         0.1091
      4 C3          0.8750   -1.0739   -0.6699 C.3       1 <0>        -0.0410
      5 S1          2.6015   -0.5178   -0.6915 S.3       1 <0>        -0.2431
      6 C4         -1.4051   -0.5263    0.1365 C.2       1 <0>         0.5500
      7 O1         -1.8501   -1.2909   -0.6932 O.2       1 <0>        -0.5428
      8 N1         -2.1726   -0.1358    1.1733 N.am      1 <0>        -0.5591
      9 C5         -1.8053    0.8754    2.1812 C.3       1 <0>         0.0506
     10 H2         -1.2425    1.6858    1.7180 H         1 <0>         0.0820
     11 C6         -3.1567    1.4007    2.7267 C.3       1 <0>        -0.1106
     12 C7         -4.0126    0.1066    2.7374 C.3       1 <0>        -0.1215
     13 C8         -3.5174   -0.6431    1.4827 C.3       1 <0>         0.1815
     14 H3         -4.1879   -0.4510    0.6451 H         1 <0>         0.0773
     15 S2         -3.4423   -2.4236    1.8215 S.3       1 <0>        -0.1983
     16 C9         -5.1486   -2.9890    1.5780 C.3       1 <0>        -0.0667
     17 C10        -5.2272   -4.4725    1.8316 C.ar      1 <0>        -0.0621
     18 C11        -5.0234   -5.3628    0.7940 C.ar      1 <0>        -0.0990
     19 C12        -5.0955   -6.7235    1.0265 C.ar      1 <0>        -0.1184
     20 C13        -5.3710   -7.1939    2.2969 C.ar      1 <0>        -0.0786
     21 C14        -5.5740   -6.3036    3.3347 C.ar      1 <0>        -0.1145
     22 C15        -5.4976   -4.9430    3.1030 C.ar      1 <0>        -0.0980
     23 C16        -5.4506   -8.6774    2.5502 C.3       1 <0>        -0.0444
     24 C17        -6.8439   -9.0312    3.0742 C.3       1 <0>        -0.1101
     25 C18        -6.9247  -10.5373    3.3314 C.3       1 <0>        -0.1193
     26 C19        -5.8733  -10.9345    4.3695 C.3       1 <0>        -0.1204
     27 C20        -4.4801  -10.5806    3.8456 C.3       1 <0>        -0.1195
     28 C21        -4.3993   -9.0746    3.5884 C.3       1 <0>        -0.1124
     29 C22        -1.0001    0.2445    3.2878 C.2       1 <0>         0.4879
     30 O2         -0.4498    0.9474    4.1183 O.co2     1 <0>        -0.6946
     31 O3         -0.8989   -0.9688    3.3527 O.co2     1 <0>        -0.6611
     32 H4          1.0255    1.6525   -0.9016 H         1 <0>         0.0776
     33 H5         -0.3605    1.0398   -1.8353 H         1 <0>         0.0611
     34 H6         -0.6346    2.0093   -0.3680 H         1 <0>         0.0604
     35 H7          0.8019   -2.0107   -0.1174 H         1 <0>         0.0885
     36 H8          0.5298   -1.2272   -1.6923 H         1 <0>         0.0916
     37 H9          3.2583   -1.5195   -1.3033 H         1 <0>         0.0819
     38 H10        -3.0422    1.8018    3.7337 H         1 <0>         0.0891
     39 H11        -3.5848    2.1467    2.0571 H         1 <0>         0.0656
     40 H12        -3.8211   -0.4749    3.6392 H         1 <0>         0.0950
     41 H13        -5.0726    0.3445    2.6484 H         1 <0>         0.0753
     42 H14        -5.8070   -2.4664    2.2719 H         1 <0>         0.0835
     43 H15        -5.4586   -2.7785    0.5545 H         1 <0>         0.0809
     44 H16        -4.8081   -4.9953   -0.1985 H         1 <0>         0.1220
     45 H17        -4.9369   -7.4191    0.2157 H         1 <0>         0.1187
     46 H18        -5.7896   -6.6712    4.3271 H         1 <0>         0.1196
     47 H19        -5.6525   -4.2475    3.9145 H         1 <0>         0.1234
     48 H20        -5.2646   -9.2152    1.6206 H         1 <0>         0.0748
     49 H21        -7.0299   -8.4933    4.0038 H         1 <0>         0.0642
     50 H22        -7.5929   -8.7482    2.3346 H         1 <0>         0.0618
     51 H23        -7.9173  -10.7894    3.7047 H         1 <0>         0.0603
     52 H24        -6.7387  -11.0751    2.4018 H         1 <0>         0.0605
     53 H25        -6.0593  -10.3966    5.2992 H         1 <0>         0.0614
     54 H26        -5.9309  -12.0074    4.5528 H         1 <0>         0.0587
     55 H27        -3.7311  -10.8636    4.5852 H         1 <0>         0.0616
     56 H28        -4.2941  -11.1185    2.9160 H         1 <0>         0.0605
     57 H29        -3.4067   -8.8225    3.2151 H         1 <0>         0.0645
     58 H30        -4.5853   -8.5367    4.5180 H         1 <0>         0.0650
@<TRIPOS>BOND
     1    1    2 1
     2    1   32 1
     3    1   33 1
     4    1   34 1
     5    2    3 1
     6    2    4 1
     7    2    6 1
     8    4    5 1
     9    4   35 1
    10    4   36 1
    11    5   37 1
    12    6    7 2
    13    6    8 am
    14    8   13 1
    15    8    9 1
    16    9   10 1
    17    9   11 1
    18    9   29 1
    19   11   12 1
    20   11   38 1
    21   11   39 1
    22   12   13 1
    23   12   40 1
    24   12   41 1
    25   13   14 1
    26   13   15 1
    27   15   16 1
    28   16   17 1
    29   16   42 1
    30   16   43 1
    31   17   22 ar
    32   17   18 ar
    33   18   19 ar
    34   18   44 1
    35   19   20 ar
    36   19   45 1
    37   20   21 ar
    38   20   23 1
    39   21   22 ar
    40   21   46 1
    41   22   47 1
    42   23   28 1
    43   23   24 1
    44   23   48 1
    45   24   25 1
    46   24   49 1
    47   24   50 1
    48   25   26 1
    49   25   51 1
    50   25   52 1
    51   26   27 1
    52   26   53 1
    53   26   54 1
    54   27   28 1
    55   27   55 1
    56   27   56 1
    57   28   57 1
    58   28   58 1
    59   29   30 2
    60   29   31 1
@<TRIPOS>MOLECULE
CHEMBL482056
   56    60     0     0     0
SMALL
USER_CHARGES

@<TRIPOS>ATOM
      1 C1         -0.7769   -1.5640   -4.1921 C.ar      1 <0>        -0.1026
      2 C2          0.2236   -1.4876   -5.1504 C.ar      1 <0>        -0.0910
      3 C3          1.5001   -1.9127   -4.8317 C.ar      1 <0>        -0.0640
      4 C4          1.7573   -2.4026   -3.5756 C.ar      1 <0>        -0.1371
      5 C5          0.7639   -2.4953   -2.5746 C.ar      1 <0>         0.0974
      6 C6         -0.5293   -2.0517   -2.9356 C.ar      1 <0>        -0.0608
      7 N1          1.1726   -2.9992   -1.3897 N.2       1 <0>        -0.5075
      8 C7          2.4092   -3.3799   -1.1739 C.2       1 <0>         0.3333
      9 S1          3.1919   -3.0415   -2.7446 S.3       1 <0>        -0.0342
     10 O1          2.9537   -3.8977   -0.0484 O.3       1 <0>        -0.1905
     11 C8          4.2478   -4.3100   -0.0970 C.ar      1 <0>         0.0777
     12 C9          5.2756   -3.3788   -0.0584 C.ar      1 <0>        -0.1104
     13 C10         6.5902   -3.8004   -0.1079 C.ar      1 <0>        -0.0922
     14 C11         6.8820   -5.1491   -0.1964 C.ar      1 <0>        -0.0906
     15 C12         5.8595   -6.0791   -0.2351 C.ar      1 <0>        -0.0942
     16 C13         4.5434   -5.6631   -0.1796 C.ar      1 <0>        -0.0976
     17 C14         8.3170   -5.6061   -0.2514 C.3       1 <0>        -0.1043
     18 C15         8.8295   -5.8495    1.1696 C.3       1 <0>        -0.0070
     19 N2         10.2283   -6.2950    1.1160 N.4       1 <0>        -0.3868
     20 C16        10.3003   -7.5959    0.4402 C.3       1 <0>        -0.0055
     21 C17        11.7628   -8.0268    0.3095 C.3       1 <0>        -0.1688
     22 C18        12.3825   -8.1400    1.7054 C.3       1 <0>         0.1758
     23 C19        12.2352   -6.7983    2.4288 C.3       1 <0>        -0.1690
     24 C20        10.7552   -6.4129    2.4809 C.3       1 <0>         0.0013
     25 N3         13.8028   -8.4781    1.5848 N.am      1 <0>        -0.6374
     26 C21        14.4594   -9.6846    2.1260 C.3       1 <0>         0.0631
     27 C22        15.8142   -9.6828    1.3789 C.3       1 <0>         0.0372
     28 O2         15.9684   -8.2907    1.0402 O.3       1 <0>        -0.3188
     29 C23        14.7423   -7.7473    0.9556 C.2       1 <0>         0.6475
     30 O3         14.5070   -6.7057    0.3758 O.2       1 <0>        -0.5157
     31 H1         -1.7725   -1.2274   -4.4407 H         1 <0>         0.1409
     32 H2          0.0074   -1.1003   -6.1351 H         1 <0>         0.1443
     33 H3          2.2897   -1.8600   -5.5667 H         1 <0>         0.1369
     34 H4         -1.3307   -2.0977   -2.2131 H         1 <0>         0.1386
     35 H5          5.0482   -2.3252    0.0100 H         1 <0>         0.1429
     36 H6          7.3906   -3.0760   -0.0779 H         1 <0>         0.1392
     37 H7          6.0901   -7.1319   -0.3046 H         1 <0>         0.1392
     38 H8          3.7452   -6.3901   -0.2053 H         1 <0>         0.1451
     39 H9          8.3820   -6.5311   -0.8244 H         1 <0>         0.0999
     40 H10         8.9248   -4.8385   -0.7303 H         1 <0>         0.1010
     41 H11         8.7644   -4.9245    1.7426 H         1 <0>         0.1356
     42 H12         8.2217   -6.6171    1.6485 H         1 <0>         0.1340
     43 H13         9.7540   -8.3381    1.0223 H         1 <0>         0.1331
     44 H14         9.8560   -7.5146   -0.5518 H         1 <0>         0.1378
     45 H15        11.8140   -8.9938   -0.1909 H         1 <0>         0.1166
     46 H16        12.3100   -7.2855   -0.2727 H         1 <0>         0.1059
     47 H17        11.8683   -8.9173    2.2706 H         1 <0>         0.1128
     48 H18        12.6241   -6.8871    3.4432 H         1 <0>         0.1174
     49 H19        12.7922   -6.0314    1.8906 H         1 <0>         0.1053
     50 H20        10.6467   -5.4582    2.9956 H         1 <0>         0.1372
     51 H21        10.1992   -7.1803    3.0196 H         1 <0>         0.1325
     52 H22        14.6094   -9.5952    3.2019 H         1 <0>         0.0960
     53 H23        13.8852  -10.5795    1.8862 H         1 <0>         0.1047
     54 H24        16.6199  -10.0157    2.0332 H         1 <0>         0.1287
     55 H25        15.7643  -10.2987    0.4809 H         1 <0>         0.0995
     56 H26        10.7755   -5.6206    0.6024 H         1 <0>         0.4271
@<TRIPOS>BOND
     1    1    6 ar
     2    1    2 ar
     3    1   31 1
     4    2    3 ar
     5    2   32 1
     6    3    4 ar
     7    3   33 1
     8    4    9 1
     9    4    5 ar
    10    5    6 ar
    11    5    7 1
    12    6   34 1
    13    7    8 2
    14    8    9 1
    15    8   10 1
    16   10   11 1
    17   11   16 ar
    18   11   12 ar
    19   12   13 ar
    20   12   35 1
    21   13   14 ar
    22   13   36 1
    23   14   15 ar
    24   14   17 1
    25   15   16 ar
    26   15   37 1
    27   16   38 1
    28   17   18 1
    29   17   39 1
    30   17   40 1
    31   18   19 1
    32   18   41 1
    33   18   42 1
    34   19   24 1
    35   19   20 1
    36   19   56 1
    37   20   21 1
    38   20   43 1
    39   20   44 1
    40   21   22 1
    41   21   45 1
    42   21   46 1
    43   22   23 1
    44   22   25 1
    45   22   47 1
    46   23   24 1
    47   23   48 1
    48   23   49 1
    49   24   50 1
    50   24   51 1
    51   25   29 am
    52   25   26 1
    53   26   27 1
    54   26   52 1
    55   26   53 1
    56   27   28 1
    57   27   54 1
    58   27   55 1
    59   28   29 1
    60   29   30 2
@<TRIPOS>MOLECULE
CHEMBL163144
   46    48     0     0     0
SMALL
USER_CHARGES

@<TRIPOS>ATOM
      1 C1         -0.0167    1.3781    0.0096 C.ar      1 <0>        -0.1067
      2 C2          1.1709    2.0855    0.0021 C.ar      1 <0>        -0.1184
      3 C3          2.3773    1.4107   -0.0130 C.ar      1 <0>        -0.0994
      4 C4          2.3960    0.0285   -0.0201 C.ar      1 <0>        -0.0873
      5 C5          1.2084   -0.6789   -0.0117 C.ar      1 <0>        -0.0990
      6 C6          0.0021   -0.0041    0.0020 C.ar      1 <0>        -0.1181
      7 C7          3.7112   -0.7071   -0.0376 C.3       1 <0>        -0.0650
      8 S1          4.2568   -1.0108    1.6656 S.3       1 <0>        -0.0920
      9 C8          5.7857   -1.8662    1.4773 C.ar      1 <0>        -0.1059
     10 C9          6.2790   -2.1367    0.2071 C.ar      1 <0>        -0.0960
     11 C10         7.4773   -2.8072    0.0607 C.ar      1 <0>        -0.1191
     12 C11         8.1884   -3.2105    1.1813 C.ar      1 <0>         0.1018
     13 C12         7.6967   -2.9410    2.4501 C.ar      1 <0>        -0.1796
     14 C13         6.5015   -2.2656    2.5989 C.ar      1 <0>        -0.0605
     15 O1          9.3682   -3.8712    1.0360 O.3       1 <0>        -0.3248
     16 C14        10.0474   -4.2570    2.2326 C.3       1 <0>         0.0275
     17 C15        11.3450   -4.9827    1.8711 C.3       1 <0>         0.0014
     18 N1         12.2544   -4.0506    1.1914 N.4       1 <0>        -0.3912
     19 C16        11.6772   -3.6525   -0.1102 C.3       1 <0>        -0.0014
     20 C17        12.8940   -3.5270   -1.0607 C.3       1 <0>        -0.1458
     21 C18        13.7923   -4.6953   -0.5757 C.3       1 <0>        -0.1420
     22 C19        13.5504   -4.7103    0.9483 C.3       1 <0>        -0.0134
     23 H1         -0.9591    1.9053    0.0259 H         1 <0>         0.1272
     24 H2          1.1563    3.1654    0.0076 H         1 <0>         0.1276
     25 H3          3.3051    1.9634   -0.0196 H         1 <0>         0.1244
     26 H4          1.2231   -1.7588   -0.0176 H         1 <0>         0.1248
     27 H5         -0.9258   -0.5567    0.0082 H         1 <0>         0.1278
     28 H6          3.5884   -1.6586   -0.5549 H         1 <0>         0.0981
     29 H7          4.4573   -0.1052   -0.5563 H         1 <0>         0.0977
     30 H8          5.7254   -1.8230   -0.6656 H         1 <0>         0.1348
     31 H9          7.8608   -3.0178   -0.9267 H         1 <0>         0.1354
     32 H10         8.2510   -3.2558    3.3219 H         1 <0>         0.1324
     33 H11         6.1211   -2.0519    3.5868 H         1 <0>         0.1362
     34 H12        10.2794   -3.3694    2.8210 H         1 <0>         0.0859
     35 H13         9.4091   -4.9221    2.8143 H         1 <0>         0.1092
     36 H14        11.8184   -5.3547    2.7797 H         1 <0>         0.1491
     37 H15        11.1211   -5.8194    1.2094 H         1 <0>         0.1403
     38 H16        10.9911   -4.4187   -0.4713 H         1 <0>         0.1375
     39 H17        11.1649   -2.6946   -0.0211 H         1 <0>         0.1340
     40 H18        12.5947   -3.6697   -2.0990 H         1 <0>         0.1160
     41 H19        13.3953   -2.5682   -0.9286 H         1 <0>         0.0969
     42 H20        13.4763   -5.6366   -1.0253 H         1 <0>         0.0985
     43 H21        14.8402   -4.4934   -0.7976 H         1 <0>         0.1124
     44 H22        14.3456   -4.1637    1.4554 H         1 <0>         0.1325
     45 H23        13.5163   -5.7385    1.3083 H         1 <0>         0.1318
     46 H24        12.3925   -3.2314    1.7642 H         1 <0>         0.4246
@<TRIPOS>BOND
     1    1    6 ar
     2    1    2 ar
     3    1   23 1
     4    2    3 ar
     5    2   24 1
     6    3    4 ar
     7    3   25 1
     8    4    5 ar
     9    4    7 1
    10    5    6 ar
    11    5   26 1
    12    6   27 1
    13    7    8 1
    14    7   28 1
    15    7   29 1
    16    8    9 1
    17    9   14 ar
    18    9   10 ar
    19   10   11 ar
    20   10   30 1
    21   11   12 ar
    22   11   31 1
    23   12   13 ar
    24   12   15 1
    25   13   14 ar
    26   13   32 1
    27   14   33 1
    28   15   16 1
    29   16   17 1
    30   16   34 1
    31   16   35 1
    32   17   18 1
    33   17   36 1
    34   17   37 1
    35   18   22 1
    36   18   19 1
    37   18   46 1
    38   19   20 1
    39   19   38 1
    40   19   39 1
    41   20   21 1
    42   20   40 1
    43   20   41 1
    44   21   22 1
    45   21   42 1
    46   21   43 1
    47   22   44 1
    48   22   45 1
@<TRIPOS>MOLECULE
CHEMBL482058
   58    62     0     0     0
SMALL
USER_CHARGES

@<TRIPOS>ATOM
      1 C1         -0.7769   -1.5640   -4.1921 C.ar      1 <0>        -0.1026
      2 C2          0.2236   -1.4876   -5.1504 C.ar      1 <0>        -0.0911
      3 C3          1.5001   -1.9127   -4.8317 C.ar      1 <0>        -0.0639
      4 C4          1.7573   -2.4026   -3.5756 C.ar      1 <0>        -0.1371
      5 C5          0.7639   -2.4953   -2.5746 C.ar      1 <0>         0.0975
      6 C6         -0.5293   -2.0517   -2.9356 C.ar      1 <0>        -0.0609
      7 N1          1.1726   -2.9992   -1.3897 N.2       1 <0>        -0.5075
      8 C7          2.4092   -3.3799   -1.1739 C.2       1 <0>         0.3335
      9 S1          3.1919   -3.0415   -2.7446 S.3       1 <0>        -0.0343
     10 O1          2.9537   -3.8977   -0.0484 O.3       1 <0>        -0.1904
     11 C8          4.2478   -4.3100   -0.0970 C.ar      1 <0>         0.0775
     12 C9          5.2756   -3.3788   -0.0584 C.ar      1 <0>        -0.1103
     13 C10         6.5902   -3.8004   -0.1079 C.ar      1 <0>        -0.0923
     14 C11         6.8820   -5.1491   -0.1964 C.ar      1 <0>        -0.0903
     15 C12         5.8595   -6.0791   -0.2351 C.ar      1 <0>        -0.0942
     16 C13         4.5434   -5.6631   -0.1796 C.ar      1 <0>        -0.0975
     17 C14         8.3170   -5.6061   -0.2514 C.3       1 <0>        -0.1041
     18 C15         8.8295   -5.8495    1.1696 C.3       1 <0>        -0.0070
     19 N2         10.2283   -6.2950    1.1160 N.4       1 <0>        -0.3857
     20 C16        10.3003   -7.5959    0.4402 C.3       1 <0>        -0.0059
     21 C17        11.7628   -8.0268    0.3095 C.3       1 <0>        -0.1656
     22 C18        12.3825   -8.1400    1.7054 C.3       1 <0>         0.1520
     23 C19        12.2352   -6.7983    2.4288 C.3       1 <0>        -0.1663
     24 C20        10.7552   -6.4129    2.4809 C.3       1 <0>         0.0007
     25 N3         13.8028   -8.4781    1.5848 N.am      1 <0>        -0.6208
     26 C21        14.4153   -9.6910    2.1396 C.3       1 <0>         0.1002
     27 C22        15.7711   -9.8371    1.4137 C.3       1 <0>        -0.1342
     28 C23        16.0738   -8.3745    1.0138 C.3       1 <0>        -0.1593
     29 C24        14.7115   -7.7203    0.9469 C.2       1 <0>         0.5239
     30 O2         14.4741   -6.6643    0.3996 O.2       1 <0>        -0.5303
     31 H1         -1.7725   -1.2274   -4.4407 H         1 <0>         0.1409
     32 H2          0.0074   -1.1003   -6.1351 H         1 <0>         0.1443
     33 H3          2.2897   -1.8600   -5.5667 H         1 <0>         0.1368
     34 H4         -1.3307   -2.0977   -2.2131 H         1 <0>         0.1386
     35 H5          5.0482   -2.3252    0.0100 H         1 <0>         0.1429
     36 H6          7.3906   -3.0760   -0.0779 H         1 <0>         0.1391
     37 H7          6.0901   -7.1319   -0.3046 H         1 <0>         0.1392
     38 H8          3.7452   -6.3901   -0.2053 H         1 <0>         0.1452
     39 H9          8.3820   -6.5311   -0.8244 H         1 <0>         0.0998
     40 H10         8.9248   -4.8385   -0.7303 H         1 <0>         0.1006
     41 H11         8.7644   -4.9245    1.7426 H         1 <0>         0.1350
     42 H12         8.2217   -6.6171    1.6485 H         1 <0>         0.1336
     43 H13         9.7540   -8.3381    1.0223 H         1 <0>         0.1319
     44 H14         9.8560   -7.5146   -0.5518 H         1 <0>         0.1361
     45 H15        11.8140   -8.9938   -0.1909 H         1 <0>         0.1144
     46 H16        12.3100   -7.2855   -0.2727 H         1 <0>         0.1037
     47 H17        11.8683   -8.9173    2.2706 H         1 <0>         0.1059
     48 H18        12.6241   -6.8871    3.4432 H         1 <0>         0.1148
     49 H19        12.7922   -6.0314    1.8906 H         1 <0>         0.1042
     50 H20        10.6467   -5.4582    2.9956 H         1 <0>         0.1353
     51 H21        10.1992   -7.1803    3.0196 H         1 <0>         0.1313
     52 H22        14.5720   -9.5776    3.2123 H         1 <0>         0.0788
     53 H23        13.7849  -10.5574    1.9393 H         1 <0>         0.0838
     54 H24        16.5352  -10.2232    2.0885 H         1 <0>         0.0983
     55 H25        15.6752  -10.4708    0.5320 H         1 <0>         0.0866
     56 H26        16.6956   -7.8934    1.7688 H         1 <0>         0.1108
     57 H27        16.5596   -8.3384    0.0387 H         1 <0>         0.1081
     58 H28        10.7755   -5.6206    0.6024 H         1 <0>         0.4263
@<TRIPOS>BOND
     1    1    6 ar
     2    1    2 ar
     3    1   31 1
     4    2    3 ar
     5    2   32 1
     6    3    4 ar
     7    3   33 1
     8    4    9 1
     9    4    5 ar
    10    5    6 ar
    11    5    7 1
    12    6   34 1
    13    7    8 2
    14    8    9 1
    15    8   10 1
    16   10   11 1
    17   11   16 ar
    18   11   12 ar
    19   12   13 ar
    20   12   35 1
    21   13   14 ar
    22   13   36 1
    23   14   15 ar
    24   14   17 1
    25   15   16 ar
    26   15   37 1
    27   16   38 1
    28   17   18 1
    29   17   39 1
    30   17   40 1
    31   18   19 1
    32   18   41 1
    33   18   42 1
    34   19   24 1
    35   19   20 1
    36   19   58 1
    37   20   21 1
    38   20   43 1
    39   20   44 1
    40   21   22 1
    41   21   45 1
    42   21   46 1
    43   22   23 1
    44   22   25 1
    45   22   47 1
    46   23   24 1
    47   23   48 1
    48   23   49 1
    49   24   50 1
    50   24   51 1
    51   25   29 am
    52   25   26 1
    53   26   27 1
    54   26   52 1
    55   26   53 1
    56   27   28 1
    57   27   54 1
    58   27   55 1
    59   28   29 1
    60   28   56 1
    61   28   57 1
    62   29   30 2
@<TRIPOS>MOLECULE
CHEMBL515470
   50    52     0     0     0
SMALL
USER_CHARGES

@<TRIPOS>ATOM
      1 C1          4.0187    5.4675   -1.1584 C.ar      1 <0>        -0.1026
      2 C2          3.9575    4.0897   -1.1387 C.ar      1 <0>        -0.1318
      3 C3          3.5876    3.4265    0.0235 C.ar      1 <0>         0.0754
      4 C4          3.2784    4.1476    1.1689 C.ar      1 <0>        -0.1119
      5 C5          3.3379    5.5256    1.1549 C.ar      1 <0>        -0.0927
      6 C6          3.7093    6.1938   -0.0101 C.ar      1 <0>        -0.0019
      7 C7          3.7747    7.6767   -0.0281 C.2       1 <0>        -0.1574
      8 C8          3.4894    8.5888    1.0850 C.2       1 <0>        -0.2060
      9 C9          3.6787    9.8298    0.6057 C.2       1 <0>        -0.0263
     10 O1          4.0481    9.7490   -0.6815 O.3       1 <0>        -0.1776
     11 C10         4.1167    8.4689   -1.0763 C.2       1 <0>        -0.0112
     12 O2          3.5277    2.0691    0.0399 O.3       1 <0>        -0.2521
     13 C11         4.6901    1.3772   -0.0950 C.ar      1 <0>         0.1223
     14 C12         4.6649   -0.0052   -0.2108 C.ar      1 <0>        -0.1279
     15 C13         5.8453   -0.7085   -0.3475 C.ar      1 <0>        -0.0771
     16 C14         7.0577   -0.0319   -0.3694 C.ar      1 <0>         0.0919
     17 C15         7.0823    1.3517   -0.2540 C.ar      1 <0>        -0.0975
     18 C16         5.9009    2.0543   -0.1226 C.ar      1 <0>        -0.1761
     19 N1          8.2557   -0.7449   -0.5076 N.am      1 <0>        -0.6624
     20 C17         8.2978   -1.8484   -1.2803 C.2       1 <0>         0.5093
     21 O3          7.2830   -2.2663   -1.7966 O.2       1 <0>        -0.5114
     22 C18         9.6059   -2.5629   -1.5028 C.3       1 <0>        -0.1552
     23 C19         9.3778   -3.7736   -2.4101 C.3       1 <0>        -0.1302
     24 C20        10.7058   -4.4990   -2.6360 C.3       1 <0>         0.0095
     25 H1         11.1485   -4.7546   -1.6733 H         1 <0>         0.1699
     26 C21        10.4620   -5.7584   -3.4270 C.2       1 <0>         0.5104
     27 O4         10.6800   -5.7769   -4.6199 O.2       1 <0>        -0.5217
     28 N2         10.0019   -6.8640   -2.8088 N.am      1 <0>        -0.8217
     29 N3         11.6218   -3.6235   -3.3792 N.4       1 <0>        -0.6232
     30 H2          4.3104    5.9828   -2.0616 H         1 <0>         0.1306
     31 H3          4.1971    3.5263   -2.0284 H         1 <0>         0.1320
     32 H4          2.9906    3.6292    2.0715 H         1 <0>         0.1366
     33 H5          3.0969    6.0860    2.0461 H         1 <0>         0.1350
     34 H6          3.1880    8.3178    2.0861 H         1 <0>         0.1542
     35 H7          3.5535   10.7445    1.1661 H         1 <0>         0.2073
     36 H8          4.3947    8.1264   -2.0621 H         1 <0>         0.2053
     37 H9          3.7219   -0.5314   -0.1937 H         1 <0>         0.1401
     38 H10         5.8256   -1.7846   -0.4369 H         1 <0>         0.1453
     39 H11         8.0250    1.8784   -0.2706 H         1 <0>         0.1302
     40 H12         5.9196    3.1308   -0.0373 H         1 <0>         0.1376
     41 H13         9.0548   -0.4444   -0.0472 H         1 <0>         0.4122
     42 H14        10.3153   -1.8834   -1.9751 H         1 <0>         0.0957
     43 H15        10.0050   -2.8967   -0.5450 H         1 <0>         0.1179
     44 H16         8.6683   -4.4531   -1.9377 H         1 <0>         0.1287
     45 H17         8.9786   -3.4398   -3.3678 H         1 <0>         0.1106
     46 H18         9.8275   -6.8492   -1.8547 H         1 <0>         0.4141
     47 H19         9.8450   -7.6746   -3.3179 H         1 <0>         0.4264
     48 H20        11.7850   -2.7803   -2.8496 H         1 <0>         0.4396
     49 H21        12.4976   -4.1019   -3.5282 H         1 <0>         0.4431
     50 H22        11.2119   -3.3869   -4.2703 H         1 <0>         0.4446
@<TRIPOS>BOND
     1    1    6 ar
     2    1    2 ar
     3    1   30 1
     4    2    3 ar
     5    2   31 1
     6    3    4 ar
     7    3   12 1
     8    4    5 ar
     9    4   32 1
    10    5    6 ar
    11    5   33 1
    12    6    7 1
    13    7   11 2
    14    7    8 1
    15    8    9 2
    16    8   34 1
    17    9   10 1
    18    9   35 1
    19   10   11 1
    20   11   36 1
    21   12   13 1
    22   13   18 ar
    23   13   14 ar
    24   14   15 ar
    25   14   37 1
    26   15   16 ar
    27   15   38 1
    28   16   17 ar
    29   16   19 1
    30   17   18 ar
    31   17   39 1
    32   18   40 1
    33   19   20 am
    34   19   41 1
    35   20   21 2
    36   20   22 1
    37   22   23 1
    38   22   42 1
    39   22   43 1
    40   23   24 1
    41   23   44 1
    42   23   45 1
    43   24   25 1
    44   24   26 1
    45   24   29 1
    46   26   27 2
    47   26   28 am
    48   28   46 1
    49   28   47 1
    50   29   48 1
    51   29   49 1
    52   29   50 1
@<TRIPOS>MOLECULE
CHEMBL515470__1
   49    51     0     0     0
SMALL
USER_CHARGES

@<TRIPOS>ATOM
      1 C1          4.0187    5.4675   -1.1584 C.ar      1 <0>        -0.1012
      2 C2          3.9575    4.0897   -1.1387 C.ar      1 <0>        -0.1324
      3 C3          3.5876    3.4265    0.0235 C.ar      1 <0>         0.0837
      4 C4          3.2784    4.1476    1.1689 C.ar      1 <0>        -0.1151
      5 C5          3.3379    5.5256    1.1549 C.ar      1 <0>        -0.0930
      6 C6          3.7093    6.1938   -0.0101 C.ar      1 <0>        -0.0089
      7 C7          3.7747    7.6767   -0.0281 C.2       1 <0>        -0.1526
      8 C8          3.4894    8.5888    1.0850 C.2       1 <0>        -0.2057
      9 C9          3.6787    9.8298    0.6057 C.2       1 <0>        -0.0297
     10 O1          4.0481    9.7490   -0.6815 O.3       1 <0>        -0.1789
     11 C10         4.1167    8.4689   -1.0763 C.2       1 <0>        -0.0140
     12 O2          3.5277    2.0691    0.0399 O.3       1 <0>        -0.2558
     13 C11         4.6901    1.3772   -0.0950 C.ar      1 <0>         0.1081
     14 C12         4.6649   -0.0052   -0.2108 C.ar      1 <0>        -0.1257
     15 C13         5.8453   -0.7085   -0.3475 C.ar      1 <0>        -0.0818
     16 C14         7.0577   -0.0319   -0.3694 C.ar      1 <0>         0.1112
     17 C15         7.0823    1.3517   -0.2540 C.ar      1 <0>        -0.1050
     18 C16         5.9009    2.0543   -0.1226 C.ar      1 <0>        -0.1752
     19 N1          8.2557   -0.7449   -0.5076 N.am      1 <0>        -0.6731
     20 C17         8.2978   -1.8484   -1.2803 C.2       1 <0>         0.5112
     21 O3          7.2830   -2.2663   -1.7966 O.2       1 <0>        -0.5221
     22 C18         9.6059   -2.5629   -1.5028 C.3       1 <0>        -0.1298
     23 C19         9.3778   -3.7736   -2.4101 C.3       1 <0>        -0.0913
     24 C20        10.7058   -4.4990   -2.6360 C.3       1 <0>         0.0731
     25 H1         11.1485   -4.7546   -1.6733 H         1 <0>         0.1068
     26 C21        10.4620   -5.7584   -3.4270 C.2       1 <0>         0.4836
     27 O4         10.6800   -5.7769   -4.6199 O.2       1 <0>        -0.5456
     28 N2         10.0019   -6.8640   -2.8088 N.am      1 <0>        -0.8515
     29 N3         11.6218   -3.6235   -3.3792 N.3       1 <0>        -0.8203
     30 H2          4.3104    5.9828   -2.0616 H         1 <0>         0.1296
     31 H3          4.1971    3.5263   -2.0284 H         1 <0>         0.1332
     32 H4          2.9906    3.6292    2.0715 H         1 <0>         0.1356
     33 H5          3.0969    6.0860    2.0461 H         1 <0>         0.1328
     34 H6          3.1880    8.3178    2.0861 H         1 <0>         0.1535
     35 H7          3.5535   10.7445    1.1661 H         1 <0>         0.2059
     36 H8          4.3947    8.1264   -2.0621 H         1 <0>         0.2056
     37 H9          3.7219   -0.5314   -0.1937 H         1 <0>         0.1367
     38 H10         5.8256   -1.7846   -0.4369 H         1 <0>         0.1469
     39 H11         8.0250    1.8784   -0.2706 H         1 <0>         0.1301
     40 H12         5.9196    3.1308   -0.0373 H         1 <0>         0.1336
     41 H13         9.0548   -0.4444   -0.0472 H         1 <0>         0.4119
     42 H14        10.3153   -1.8834   -1.9751 H         1 <0>         0.1128
     43 H15        10.0050   -2.8967   -0.5450 H         1 <0>         0.0979
     44 H16         8.6683   -4.4531   -1.9377 H         1 <0>         0.0800
     45 H17         8.9786   -3.4398   -3.3678 H         1 <0>         0.0793
     46 H18         9.8275   -6.8492   -1.8547 H         1 <0>         0.4031
     47 H19         9.8450   -7.6746   -3.3179 H         1 <0>         0.4011
     48 H20        12.5278   -4.0547   -3.4852 H         1 <0>         0.3479
     49 H21        11.2337   -3.3722   -4.2761 H         1 <0>         0.3534
@<TRIPOS>BOND
     1    1    6 ar
     2    1    2 ar
     3    1   30 1
     4    2    3 ar
     5    2   31 1
     6    3    4 ar
     7    3   12 1
     8    4    5 ar
     9    4   32 1
    10    5    6 ar
    11    5   33 1
    12    6    7 1
    13    7   11 2
    14    7    8 1
    15    8    9 2
    16    8   34 1
    17    9   10 1
    18    9   35 1
    19   10   11 1
    20   11   36 1
    21   12   13 1
    22   13   18 ar
    23   13   14 ar
    24   14   15 ar
    25   14   37 1
    26   15   16 ar
    27   15   38 1
    28   16   17 ar
    29   16   19 1
    30   17   18 ar
    31   17   39 1
    32   18   40 1
    33   19   20 am
    34   19   41 1
    35   20   21 2
    36   20   22 1
    37   22   23 1
    38   22   42 1
    39   22   43 1
    40   23   24 1
    41   23   44 1
    42   23   45 1
    43   24   25 1
    44   24   26 1
    45   24   29 1
    46   26   27 2
    47   26   28 am
    48   28   46 1
    49   28   47 1
    50   29   48 1
    51   29   49 1
@<TRIPOS>MOLECULE
CHEMBL159263
   51    53     0     0     0
SMALL
USER_CHARGES

@<TRIPOS>ATOM
      1 C1         -0.0167    1.3781    0.0096 C.ar      1 <0>        -0.1208
      2 C2          1.1709    2.0855    0.0021 C.ar      1 <0>        -0.1165
      3 C3          2.3773    1.4107   -0.0130 C.ar      1 <0>        -0.1151
      4 C4          2.3960    0.0285   -0.0201 C.ar      1 <0>        -0.0817
      5 C5          1.2084   -0.6789   -0.0117 C.ar      1 <0>        -0.1159
      6 C6          0.0021   -0.0041    0.0020 C.ar      1 <0>        -0.1172
      7 C7          3.7112   -0.7071   -0.0376 C.3       1 <0>        -0.0445
      8 C8          4.1644   -0.9594    1.3773 C.ar      1 <0>        -0.0919
      9 C9          4.9522   -0.0267    2.0264 C.ar      1 <0>        -0.0721
     10 C10         5.3694   -0.2559    3.3232 C.ar      1 <0>        -0.1380
     11 C11         4.9969   -1.4228    3.9745 C.ar      1 <0>         0.1082
     12 C12         4.2060   -2.3568    3.3213 C.ar      1 <0>        -0.1990
     13 C13         3.7871   -2.1206    2.0262 C.ar      1 <0>        -0.0728
     14 O1          5.4064   -1.6507    5.2502 O.3       1 <0>        -0.3279
     15 C14         4.9849   -2.8733    5.8582 C.3       1 <0>         0.0257
     16 C15         5.5391   -2.9523    7.2821 C.3       1 <0>        -0.0003
     17 N1          4.9437   -1.8865    8.0991 N.4       1 <0>        -0.3788
     18 C16         3.5297   -2.1311    8.2689 C.3       1 <0>        -0.0246
     19 C17         2.7306   -0.8165    8.2577 C.3       1 <0>        -0.1440
     20 C18         3.4300    0.3108    9.0423 C.3       1 <0>        -0.1425
     21 C19         4.0276   -0.1525   10.3451 C.3       1 <0>        -0.1339
     22 C20         5.4949   -0.5842   10.1073 C.3       1 <0>        -0.1571
     23 C21         5.5597   -1.8797    9.4375 C.3       1 <0>        -0.0022
     24 H1         -0.9591    1.9053    0.0259 H         1 <0>         0.1231
     25 H2          1.1563    3.1654    0.0076 H         1 <0>         0.1235
     26 H3          3.3051    1.9634   -0.0196 H         1 <0>         0.1209
     27 H4          1.2231   -1.7588   -0.0176 H         1 <0>         0.1197
     28 H5         -0.9258   -0.5567    0.0082 H         1 <0>         0.1229
     29 H6          3.5884   -1.6586   -0.5549 H         1 <0>         0.0856
     30 H7          4.4573   -0.1052   -0.5563 H         1 <0>         0.0866
     31 H8          5.2420    0.8815    1.5189 H         1 <0>         0.1347
     32 H9          5.9853    0.4726    3.8295 H         1 <0>         0.1325
     33 H10         3.9147   -3.2660    3.8262 H         1 <0>         0.1265
     34 H11         3.1678   -2.8454    1.5188 H         1 <0>         0.1296
     35 H12         3.8958   -2.9068    5.8898 H         1 <0>         0.0857
     36 H13         5.3576   -3.7160    5.2759 H         1 <0>         0.1098
     37 H14         5.2928   -3.9221    7.7145 H         1 <0>         0.1504
     38 H15         6.6219   -2.8297    7.2579 H         1 <0>         0.1432
     39 H16         3.1780   -2.7696    7.4584 H         1 <0>         0.1261
     40 H17         3.3669   -2.6398    9.2190 H         1 <0>         0.1307
     41 H18         2.5958   -0.4953    7.2249 H         1 <0>         0.0883
     42 H19         1.7504   -0.9967    8.6989 H         1 <0>         0.1067
     43 H20         4.2234    0.7283    8.4224 H         1 <0>         0.0657
     44 H21         2.7026    1.0954    9.2505 H         1 <0>         0.0915
     45 H22         4.0005    0.6625   11.0684 H         1 <0>         0.0906
     46 H23         3.4565   -0.9986   10.7272 H         1 <0>         0.0777
     47 H24         5.9918    0.1633    9.4890 H         1 <0>         0.0875
     48 H25         6.0078   -0.6516   11.0668 H         1 <0>         0.1178
     49 H26         5.0526   -2.6185   10.0580 H         1 <0>         0.1282
     50 H27         6.6060   -2.1698    9.3407 H         1 <0>         0.1271
     51 H28         5.0861   -0.9931    7.6523 H         1 <0>         0.4301
@<TRIPOS>BOND
     1    1    6 ar
     2    1    2 ar
     3    1   24 1
     4    2    3 ar
     5    2   25 1
     6    3    4 ar
     7    3   26 1
     8    4    5 ar
     9    4    7 1
    10    5    6 ar
    11    5   27 1
    12    6   28 1
    13    7    8 1
    14    7   29 1
    15    7   30 1
    16    8   13 ar
    17    8    9 ar
    18    9   10 ar
    19    9   31 1
    20   10   11 ar
    21   10   32 1
    22   11   12 ar
    23   11   14 1
    24   12   13 ar
    25   12   33 1
    26   13   34 1
    27   14   15 1
    28   15   16 1
    29   15   35 1
    30   15   36 1
    31   16   17 1
    32   16   37 1
    33   16   38 1
    34   17   23 1
    35   17   18 1
    36   17   51 1
    37   18   19 1
    38   18   39 1
    39   18   40 1
    40   19   20 1
    41   19   41 1
    42   19   42 1
    43   20   21 1
    44   20   43 1
    45   20   44 1
    46   21   22 1
    47   21   45 1
    48   21   46 1
    49   22   23 1
    50   22   47 1
    51   22   48 1
    52   23   49 1
    53   23   50 1
@<TRIPOS>MOLECULE
CHEMBL476895
   49    51     0     0     0
SMALL
USER_CHARGES

@<TRIPOS>ATOM
      1 C1          4.3938   -1.2356    6.0756 C.2       1 <0>        -0.1893
      2 C2          3.3898   -2.0047    6.6971 C.2       1 <0>        -0.1890
      3 C3          2.9527   -2.9057    5.7937 C.2       1 <0>        -0.0183
      4 N1          3.6510   -2.7211    4.6350 N.pl3     1 <0>        -0.3949
      5 C4          4.5333   -1.6948    4.8151 C.2       1 <0>        -0.0174
      6 C5          3.4890   -3.4631    3.4550 C.ar      1 <0>         0.1095
      7 C6          2.5486   -4.4828    3.3997 C.ar      1 <0>        -0.1003
      8 C7          2.3891   -5.2124    2.2384 C.ar      1 <0>        -0.1660
      9 C8          3.1687   -4.9266    1.1267 C.ar      1 <0>         0.1108
     10 C9          4.1088   -3.9074    1.1816 C.ar      1 <0>        -0.1140
     11 C10         4.2651   -3.1739    2.3409 C.ar      1 <0>        -0.1012
     12 O1          3.0118   -5.6454   -0.0163 O.3       1 <0>        -0.2529
     13 C11         2.1519   -6.6981    0.0048 C.ar      1 <0>         0.0702
     14 C12         0.7826   -6.4758   -0.0244 C.ar      1 <0>        -0.1132
     15 C13        -0.0912   -7.5447   -0.0035 C.ar      1 <0>        -0.1047
     16 C14         0.4006   -8.8422    0.0468 C.ar      1 <0>         0.1424
     17 C15         1.7709   -9.0641    0.0760 C.ar      1 <0>        -0.1279
     18 C16         2.6439   -7.9947    0.0497 C.ar      1 <0>        -0.0999
     19 N2         -0.4856   -9.9271    0.0686 N.am      1 <0>        -0.6738
     20 C17        -1.6404   -9.8680   -0.6238 C.2       1 <0>         0.5124
     21 O2         -1.9499   -8.8470   -1.2009 O.2       1 <0>        -0.5034
     22 C18        -2.5471  -11.0704   -0.6811 C.3       1 <0>        -0.1524
     23 C19        -3.7800  -10.7397   -1.5245 C.3       1 <0>        -0.1143
     24 C20        -4.7005  -11.9604   -1.5827 C.3       1 <0>        -0.0495
     25 H1         -4.9408  -12.2829   -0.5696 H         1 <0>         0.1355
     26 C21        -5.9703  -11.5979   -2.3088 C.2       1 <0>         0.4882
     27 O3         -6.0432  -11.7401   -3.5175 O.co2     1 <0>        -0.6660
     28 O4         -6.9248  -11.1624   -1.6876 O.co2     1 <0>        -0.6342
     29 N3         -4.0228  -13.0512   -2.2960 N.4       1 <0>        -0.6158
     30 H2          4.9469   -0.4239    6.5248 H         1 <0>         0.1417
     31 H3          3.0356   -1.8934    7.7113 H         1 <0>         0.1414
     32 H4          2.1835   -3.6457    5.9584 H         1 <0>         0.1636
     33 H5          5.2235   -1.3159    4.0759 H         1 <0>         0.1650
     34 H6          1.9420   -4.7056    4.2651 H         1 <0>         0.1345
     35 H7          1.6577   -6.0060    2.1955 H         1 <0>         0.1381
     36 H8          4.7156   -3.6854    0.3162 H         1 <0>         0.1438
     37 H9          4.9939   -2.3780    2.3823 H         1 <0>         0.1402
     38 H10         0.4002   -5.4665   -0.0632 H         1 <0>         0.1370
     39 H11        -1.1570   -7.3715   -0.0258 H         1 <0>         0.1479
     40 H12         2.1540  -10.0732    0.1152 H         1 <0>         0.1358
     41 H13         3.7099   -8.1673    0.0683 H         1 <0>         0.1388
     42 H14        -0.2680  -10.7209    0.5820 H         1 <0>         0.4131
     43 H15        -2.0128  -11.9072   -1.1310 H         1 <0>         0.0894
     44 H16        -2.8587  -11.3388    0.3283 H         1 <0>         0.1112
     45 H17        -4.3142   -9.9029   -1.0746 H         1 <0>         0.1162
     46 H18        -3.4683  -10.4712   -2.5340 H         1 <0>         0.0946
     47 H19        -4.6299  -13.8562   -2.3343 H         1 <0>         0.4322
     48 H20        -3.8005  -12.7527   -3.2338 H         1 <0>         0.4346
     49 H21        -3.1727  -13.2939   -1.8098 H         1 <0>         0.4104
@<TRIPOS>BOND
     1    1    5 2
     2    1    2 1
     3    1   30 1
     4    2    3 2
     5    2   31 1
     6    3    4 1
     7    3   32 1
     8    4    5 1
     9    4    6 1
    10    5   33 1
    11    6   11 ar
    12    6    7 ar
    13    7    8 ar
    14    7   34 1
    15    8    9 ar
    16    8   35 1
    17    9   10 ar
    18    9   12 1
    19   10   11 ar
    20   10   36 1
    21   11   37 1
    22   12   13 1
    23   13   18 ar
    24   13   14 ar
    25   14   15 ar
    26   14   38 1
    27   15   16 ar
    28   15   39 1
    29   16   17 ar
    30   16   19 1
    31   17   18 ar
    32   17   40 1
    33   18   41 1
    34   19   20 am
    35   19   42 1
    36   20   21 2
    37   20   22 1
    38   22   23 1
    39   22   43 1
    40   22   44 1
    41   23   24 1
    42   23   45 1
    43   23   46 1
    44   24   25 1
    45   24   26 1
    46   24   29 1
    47   26   27 2
    48   26   28 1
    49   29   47 1
    50   29   48 1
    51   29   49 1
@<TRIPOS>MOLECULE
CHEMBL14814
   45    48     0     0     0
SMALL
USER_CHARGES

@<TRIPOS>ATOM
      1 C1         -0.0167    1.3781    0.0096 C.ar      1 <0>        -0.1212
      2 C2          1.1709    2.0855    0.0021 C.ar      1 <0>        -0.1161
      3 C3          2.3773    1.4107   -0.0130 C.ar      1 <0>        -0.1146
      4 C4          2.3960    0.0285   -0.0201 C.ar      1 <0>        -0.0812
      5 C5          1.2084   -0.6789   -0.0117 C.ar      1 <0>        -0.1164
      6 C6          0.0021   -0.0041    0.0020 C.ar      1 <0>        -0.1178
      7 C7          3.7112   -0.7071   -0.0376 C.3       1 <0>        -0.0430
      8 C8          4.1644   -0.9594    1.3773 C.ar      1 <0>        -0.0960
      9 C9          4.9522   -0.0267    2.0264 C.ar      1 <0>        -0.0711
     10 C10         5.3694   -0.2559    3.3232 C.ar      1 <0>        -0.1362
     11 C11         4.9969   -1.4228    3.9745 C.ar      1 <0>         0.1125
     12 C12         4.2060   -2.3568    3.3213 C.ar      1 <0>        -0.2020
     13 C13         3.7871   -2.1206    2.0262 C.ar      1 <0>        -0.0739
     14 O1          5.4064   -1.6507    5.2502 O.3       1 <0>        -0.3059
     15 C14         4.9849   -2.8733    5.8582 C.3       1 <0>         0.0415
     16 C15         5.5391   -2.9523    7.2821 C.3       1 <0>         0.0554
     17 N1          5.1069   -4.2057    7.9054 N.ar      1 <0>        -0.3363
     18 C16         3.9647   -4.2255    8.5717 C.ar      1 <0>         0.0901
     19 C17         3.5105   -5.3664    9.1748 C.ar      1 <0>        -0.0839
     20 C18         4.2720   -6.5258    9.0800 C.ar      1 <0>         0.1210
     21 N2          4.1480   -7.8161    9.5371 N.pl3     1 <0>        -0.5729
     22 C19         5.2422   -8.5050    9.1098 C.2       1 <0>         0.3261
     23 N3          6.0238   -7.7224    8.4238 N.2       1 <0>        -0.4609
     24 C20         5.4846   -6.4795    8.3646 C.ar      1 <0>         0.0317
     25 C21         5.8672   -5.2730    7.7775 C.ar      1 <0>         0.2127
     26 H1         -0.9591    1.9053    0.0259 H         1 <0>         0.1228
     27 H2          1.1563    3.1654    0.0076 H         1 <0>         0.1237
     28 H3          3.3051    1.9634   -0.0196 H         1 <0>         0.1214
     29 H4          1.2231   -1.7588   -0.0176 H         1 <0>         0.1189
     30 H5         -0.9258   -0.5567    0.0082 H         1 <0>         0.1222
     31 H6          3.5884   -1.6586   -0.5549 H         1 <0>         0.0843
     32 H7          4.4573   -0.1052   -0.5563 H         1 <0>         0.0863
     33 H8          5.2420    0.8815    1.5189 H         1 <0>         0.1350
     34 H9          5.9853    0.4726    3.8295 H         1 <0>         0.1354
     35 H10         3.9147   -3.2660    3.8262 H         1 <0>         0.1226
     36 H11         3.1678   -2.8454    1.5188 H         1 <0>         0.1276
     37 H12         3.8958   -2.9068    5.8898 H         1 <0>         0.0798
     38 H13         5.3576   -3.7160    5.2759 H         1 <0>         0.0792
     39 H14         6.6281   -2.9189    7.2505 H         1 <0>         0.1428
     40 H15         5.1664   -2.1096    7.8643 H         1 <0>         0.1448
     41 H16         3.3780   -3.3214    8.6415 H         1 <0>         0.2114
     42 H17         2.5758   -5.3663    9.7160 H         1 <0>         0.1854
     43 H18         5.4337   -9.5486    9.3111 H         1 <0>         0.2491
     44 H19         6.7905   -5.2136    7.2204 H         1 <0>         0.2167
     45 H20         3.4165   -8.1704   10.0665 H         1 <0>         0.4491
@<TRIPOS>BOND
     1    1    6 ar
     2    1    2 ar
     3    1   26 1
     4    2    3 ar
     5    2   27 1
     6    3    4 ar
     7    3   28 1
     8    4    5 ar
     9    4    7 1
    10    5    6 ar
    11    5   29 1
    12    6   30 1
    13    7    8 1
    14    7   31 1
    15    7   32 1
    16    8   13 ar
    17    8    9 ar
    18    9   10 ar
    19    9   33 1
    20   10   11 ar
    21   10   34 1
    22   11   12 ar
    23   11   14 1
    24   12   13 ar
    25   12   35 1
    26   13   36 1
    27   14   15 1
    28   15   16 1
    29   15   37 1
    30   15   38 1
    31   16   17 1
    32   16   39 1
    33   16   40 1
    34   17   25 ar
    35   17   18 ar
    36   18   19 ar
    37   18   41 1
    38   19   20 ar
    39   19   42 1
    40   20   24 ar
    41   20   21 1
    42   21   22 1
    43   21   45 1
    44   22   23 2
    45   22   43 1
    46   23   24 1
    47   24   25 ar
    48   25   44 1
@<TRIPOS>MOLECULE
CHEMBL479378
   65    69     0     0     0
SMALL
USER_CHARGES

@<TRIPOS>ATOM
      1 C1         -2.6697    3.9348   -1.4415 C.ar      1 <0>        -0.1261
      2 C2         -1.7415    4.9428   -1.5980 C.ar      1 <0>        -0.0835
      3 C3         -0.3790    4.6348   -1.6272 C.ar      1 <0>        -0.1111
      4 C4          0.0329    3.3060   -1.4975 C.ar      1 <0>        -0.0836
      5 C5         -0.9067    2.3084   -1.3417 C.ar      1 <0>        -0.1262
      6 C6         -2.2544    2.6210   -1.3137 C.ar      1 <0>        -0.1286
      7 C7         -3.2749    1.5253   -1.1426 C.3       1 <0>        -0.0889
      8 C8         -3.6878    0.9938   -2.5167 C.3       1 <0>        -0.0082
      9 N1         -4.6825   -0.0742   -2.3499 N.4       1 <0>        -0.3837
     10 C9         -4.0664   -1.2102   -1.6539 C.3       1 <0>        -0.0079
     11 C10        -5.1189   -2.2928   -1.4056 C.3       1 <0>        -0.1533
     12 C11        -5.6873   -2.7619   -2.7480 C.3       1 <0>         0.1461
     13 C12        -6.2608   -1.5560   -3.4977 C.3       1 <0>        -0.1661
     14 C13        -5.1660   -0.5007   -3.6685 C.3       1 <0>        -0.0046
     15 N2         -6.7493   -3.7437   -2.5141 N.pl3     1 <0>        -0.7450
     16 C14        -7.0607   -4.6858   -3.5006 C.ar      1 <0>         0.1768
     17 C15        -6.3595   -4.6942   -4.6993 C.ar      1 <0>        -0.1582
     18 C16        -6.6671   -5.6246   -5.6722 C.ar      1 <0>        -0.1456
     19 C17        -7.6763   -6.5508   -5.4525 C.ar      1 <0>         0.0777
     20 C18        -8.3776   -6.5427   -4.2555 C.ar      1 <0>        -0.0935
     21 C19        -8.0673   -5.6165   -3.2793 C.ar      1 <0>        -0.1473
     22 O1         -7.9787   -7.4666   -6.4110 O.3       1 <0>        -0.2597
     23 C20        -7.2613   -7.4434   -7.5639 C.ar      1 <0>         0.1042
     24 C21        -6.0994   -8.1972   -7.6722 C.ar      1 <0>        -0.1267
     25 C22        -5.3685   -8.1759   -8.8403 C.ar      1 <0>        -0.0562
     26 C23        -5.7975   -7.3957   -9.9160 C.ar      1 <0>        -0.0144
     27 C24        -6.9662   -6.6398   -9.8034 C.ar      1 <0>        -0.0751
     28 C25        -7.6944   -6.6704   -8.6339 C.ar      1 <0>        -0.1268
     29 C26        -5.0166   -7.3697  -11.1699 C.2       1 <0>         0.2242
     30 N3         -3.9099   -8.0378  -11.3978 N.2       1 <0>        -0.4673
     31 C27        -3.4920   -7.7635  -12.6433 C.2       1 <0>        -0.0379
     32 C28        -4.3683   -6.9033  -13.1921 C.2       1 <0>        -0.0643
     33 O2         -5.3232   -6.6623  -12.2713 O.3       1 <0>        -0.1968
     34 C29         0.6200    5.7075   -1.7948 C.2       1 <0>         0.5118
     35 O3          0.2563    6.8695   -1.9084 O.co2     1 <0>        -0.6783
     36 O4          1.8118    5.4346   -1.8200 O.co2     1 <0>        -0.6784
     37 H1         -3.7230    4.1719   -1.4142 H         1 <0>         0.1148
     38 H2         -2.0670    5.9677   -1.6980 H         1 <0>         0.1320
     39 H3          1.0844    3.0606   -1.5196 H         1 <0>         0.1319
     40 H4         -0.5898    1.2808   -1.2417 H         1 <0>         0.1142
     41 H5         -2.8432    0.7154   -0.5545 H         1 <0>         0.0883
     42 H6         -4.1504    1.9213   -0.6281 H         1 <0>         0.0885
     43 H7         -4.1194    1.8037   -3.1048 H         1 <0>         0.1335
     44 H8         -2.8122    0.5978   -3.0312 H         1 <0>         0.1319
     45 H9         -3.2630   -1.6190   -2.2669 H         1 <0>         0.1318
     46 H10        -3.6595   -0.8742   -0.7002 H         1 <0>         0.1385
     47 H11        -4.6591   -3.1362   -0.8904 H         1 <0>         0.1172
     48 H12        -5.9227   -1.8852   -0.7925 H         1 <0>         0.0925
     49 H13        -4.8936   -3.2161   -3.3412 H         1 <0>         0.0942
     50 H14        -6.6172   -1.8727   -4.4779 H         1 <0>         0.1129
     51 H15        -7.0883   -1.1331   -2.9280 H         1 <0>         0.0910
     52 H16        -5.5708    0.3592   -4.2022 H         1 <0>         0.1332
     53 H17        -4.3392   -0.9246   -4.2385 H         1 <0>         0.1294
     54 H18        -7.2365   -3.7406   -1.6754 H         1 <0>         0.4040
     55 H19        -5.5740   -3.9730   -4.8706 H         1 <0>         0.1218
     56 H20        -6.1221   -5.6311   -6.6046 H         1 <0>         0.1291
     57 H21        -9.1634   -7.2638   -4.0853 H         1 <0>         0.1365
     58 H22        -8.6103   -5.6132   -2.3457 H         1 <0>         0.1313
     59 H23        -5.7683   -8.8004   -6.8398 H         1 <0>         0.1422
     60 H24        -4.4649   -8.7616   -8.9235 H         1 <0>         0.1478
     61 H25        -7.3010   -6.0349  -10.6332 H         1 <0>         0.1404
     62 H26        -8.6008   -6.0895   -8.5476 H         1 <0>         0.1406
     63 H27        -2.6088   -8.1623  -13.1201 H         1 <0>         0.1902
     64 H28        -4.3183   -6.4860  -14.1869 H         1 <0>         0.2215
     65 H29        -5.4576    0.2716   -1.8043 H         1 <0>         0.4214
@<TRIPOS>BOND
     1    1    6 ar
     2    1    2 ar
     3    1   37 1
     4    2    3 ar
     5    2   38 1
     6    3    4 ar
     7    3   34 1
     8    4    5 ar
     9    4   39 1
    10    5    6 ar
    11    5   40 1
    12    6    7 1
    13    7    8 1
    14    7   41 1
    15    7   42 1
    16    8    9 1
    17    8   43 1
    18    8   44 1
    19    9   14 1
    20    9   10 1
    21    9   65 1
    22   10   11 1
    23   10   45 1
    24   10   46 1
    25   11   12 1
    26   11   47 1
    27   11   48 1
    28   12   13 1
    29   12   15 1
    30   12   49 1
    31   13   14 1
    32   13   50 1
    33   13   51 1
    34   14   52 1
    35   14   53 1
    36   15   16 1
    37   15   54 1
    38   16   21 ar
    39   16   17 ar
    40   17   18 ar
    41   17   55 1
    42   18   19 ar
    43   18   56 1
    44   19   20 ar
    45   19   22 1
    46   20   21 ar
    47   20   57 1
    48   21   58 1
    49   22   23 1
    50   23   28 ar
    51   23   24 ar
    52   24   25 ar
    53   24   59 1
    54   25   26 ar
    55   25   60 1
    56   26   27 ar
    57   26   29 1
    58   27   28 ar
    59   27   61 1
    60   28   62 1
    61   29   33 1
    62   29   30 2
    63   30   31 1
    64   31   32 2
    65   31   63 1
    66   32   33 1
    67   32   64 1
    68   34   35 2
    69   34   36 1
@<TRIPOS>MOLECULE
CHEMBL1098532
   63    66     0     0     0
SMALL
USER_CHARGES

@<TRIPOS>ATOM
      1 C1         -0.2268    0.5827    0.3624 C.ar      1 <0>        -0.1089
      2 C2          0.9141    1.3554    0.4396 C.ar      1 <0>        -0.1078
      3 C3          2.1676    0.7538    0.3451 C.ar      1 <0>        -0.0255
      4 C4          2.2613   -0.6259    0.1730 C.ar      1 <0>        -0.1083
      5 C5          1.1138   -1.3888    0.0970 C.ar      1 <0>        -0.1098
      6 C6         -0.1278   -0.7864    0.1914 C.ar      1 <0>        -0.0818
      7 C7         -1.3773   -1.6248    0.1082 C.3       1 <0>        -0.0407
      8 C8         -1.8170   -1.7299   -1.3294 C.ar      1 <0>        -0.0981
      9 C9         -2.6834   -0.7902   -1.8566 C.ar      1 <0>        -0.0723
     10 C10        -3.0883   -0.8846   -3.1740 C.ar      1 <0>        -0.1382
     11 C11        -2.6244   -1.9231   -3.9683 C.ar      1 <0>         0.1146
     12 C12        -1.7547   -2.8644   -3.4371 C.ar      1 <0>        -0.1998
     13 C13        -1.3488   -2.7627   -2.1205 C.ar      1 <0>        -0.0727
     14 O1         -3.0215   -2.0184   -5.2645 O.3       1 <0>        -0.3223
     15 C14        -2.5039   -3.1134   -6.0228 C.3       1 <0>         0.0304
     16 C15        -3.0585   -3.0545   -7.4475 C.3       1 <0>         0.0376
     17 H1         -2.7122   -3.9229   -8.0079 H         1 <0>         0.1491
     18 C16        -4.5880   -3.0562   -7.3992 C.3       1 <0>        -0.1375
     19 C17        -5.1383   -2.9975   -8.8271 C.3       1 <0>        -0.1353
     20 C18        -4.5812   -1.7549   -9.5277 C.3       1 <0>        -0.1453
     21 C19        -3.0520   -1.8014   -9.4971 C.3       1 <0>        -0.0131
     22 N1         -2.5881   -1.8293   -8.1047 N.4       1 <0>        -0.3786
     23 C20        -1.1197   -1.7945   -8.0792 C.3       1 <0>        -0.0205
     24 C21        -0.6308   -0.4676   -8.6633 C.3       1 <0>        -0.1167
     25 C22         0.8986   -0.4314   -8.6367 C.3       1 <0>        -0.1828
     26 C23         1.3802    0.8755   -9.2121 C.2       1 <0>         0.4890
     27 O2          0.5748    1.7014   -9.6069 O.co2     1 <0>        -0.6961
     28 O3          2.5751    1.1069   -9.2829 O.co2     1 <0>        -0.6872
     29 C24         3.3977    1.5792    0.4269 C.2       1 <0>        -0.0857
     30 C25         4.6560    0.9929    0.3288 C.2       1 <0>        -0.1516
     31 C26         5.7538    1.7783    0.4076 C.2       1 <0>        -0.1687
     32 S1          5.0432    3.4008    0.6266 S.3       1 <0>         0.0501
     33 C27         3.3208    2.9336    0.5947 C.2       1 <0>        -0.1669
     34 H2         -1.1987    1.0473    0.4400 H         1 <0>         0.1230
     35 H3          0.8357    2.4243    0.5727 H         1 <0>         0.1241
     36 H4          3.2302   -1.0973    0.0988 H         1 <0>         0.1246
     37 H5          1.1852   -2.4581   -0.0364 H         1 <0>         0.1216
     38 H6         -1.1728   -2.6214    0.4994 H         1 <0>         0.0836
     39 H7         -2.1676   -1.1586    0.6967 H         1 <0>         0.0847
     40 H8         -3.0443    0.0181   -1.2378 H         1 <0>         0.1327
     41 H9         -3.7656   -0.1507   -3.5851 H         1 <0>         0.1326
     42 H10        -1.3922   -3.6738   -4.0534 H         1 <0>         0.1264
     43 H11        -0.6683   -3.4927   -1.7077 H         1 <0>         0.1276
     44 H12        -1.4161   -3.0520   -6.0535 H         1 <0>         0.0893
     45 H13        -2.8018   -4.0520   -5.5554 H         1 <0>         0.1038
     46 H14        -4.9358   -3.9673   -6.9123 H         1 <0>         0.1071
     47 H15        -4.9354   -2.1880   -6.8392 H         1 <0>         0.0960
     48 H16        -4.8335   -3.8908   -9.3723 H         1 <0>         0.0796
     49 H17        -6.2265   -2.9414   -8.7963 H         1 <0>         0.0923
     50 H18        -4.9241   -1.7359  -10.5622 H         1 <0>         0.1105
     51 H19        -4.9285   -0.8597   -9.0119 H         1 <0>         0.0879
     52 H20        -2.7058   -2.6968  -10.0134 H         1 <0>         0.1262
     53 H21        -2.6520   -0.9183   -9.9953 H         1 <0>         0.1402
     54 H22        -0.7719   -1.8888   -7.0505 H         1 <0>         0.1235
     55 H23        -0.7264   -2.6197   -8.6728 H         1 <0>         0.1247
     56 H24        -0.9786   -0.3734   -9.6921 H         1 <0>         0.0849
     57 H25        -1.0241    0.3576   -8.0698 H         1 <0>         0.0837
     58 H26         1.2464   -0.5257   -7.6080 H         1 <0>         0.0659
     59 H27         1.2919   -1.2567   -9.2303 H         1 <0>         0.0664
     60 H28         4.7542   -0.0739    0.1922 H         1 <0>         0.1365
     61 H29         6.7947    1.4959    0.3521 H         1 <0>         0.1885
     62 H30         2.4449    3.5588    0.6856 H         1 <0>         0.1871
     63 H31        -2.9501   -1.0254   -7.6141 H         1 <0>         0.4266
@<TRIPOS>BOND
     1    1    6 ar
     2    1    2 ar
     3    1   34 1
     4    2    3 ar
     5    2   35 1
     6    3    4 ar
     7    3   29 1
     8    4    5 ar
     9    4   36 1
    10    5    6 ar
    11    5   37 1
    12    6    7 1
    13    7    8 1
    14    7   38 1
    15    7   39 1
    16    8   13 ar
    17    8    9 ar
    18    9   10 ar
    19    9   40 1
    20   10   11 ar
    21   10   41 1
    22   11   12 ar
    23   11   14 1
    24   12   13 ar
    25   12   42 1
    26   13   43 1
    27   14   15 1
    28   15   16 1
    29   15   44 1
    30   15   45 1
    31   16   17 1
    32   16   22 1
    33   16   18 1
    34   18   19 1
    35   18   46 1
    36   18   47 1
    37   19   20 1
    38   19   48 1
    39   19   49 1
    40   20   21 1
    41   20   50 1
    42   20   51 1
    43   21   22 1
    44   21   52 1
    45   21   53 1
    46   22   23 1
    47   22   63 1
    48   23   24 1
    49   23   54 1
    50   23   55 1
    51   24   25 1
    52   24   56 1
    53   24   57 1
    54   25   26 1
    55   25   58 1
    56   25   59 1
    57   26   27 2
    58   26   28 1
    59   29   33 2
    60   29   30 1
    61   30   31 2
    62   30   60 1
    63   31   32 1
    64   31   61 1
    65   32   33 1
    66   33   62 1
@<TRIPOS>MOLECULE
CHEMBL480336
   59    63     0     0     0
SMALL
USER_CHARGES

@<TRIPOS>ATOM
      1 C1          0.0463   -0.2763   -4.2821 C.ar      1 <0>        -0.1027
      2 C2          1.0983   -0.2401   -5.1860 C.ar      1 <0>        -0.0926
      3 C3          2.3088   -0.8115   -4.8393 C.ar      1 <0>        -0.0637
      4 C4          2.4508   -1.4041   -3.6095 C.ar      1 <0>        -0.1380
      5 C5          1.4020   -1.4598   -2.6637 C.ar      1 <0>         0.0987
      6 C6          0.1789   -0.8658   -3.0522 C.ar      1 <0>        -0.0619
      7 N1          1.6969   -2.0770   -1.4988 N.2       1 <0>        -0.5095
      8 C7          2.8774   -2.5937   -1.2533 C.2       1 <0>         0.3344
      9 S1          3.7706   -2.2362   -2.7596 S.3       1 <0>        -0.0370
     10 O1          3.3093   -3.2340   -0.1422 O.3       1 <0>        -0.1849
     11 C8          4.5578   -3.7720   -0.1602 C.ar      1 <0>         0.0384
     12 C9          5.6683   -2.9528   -0.0185 C.ar      1 <0>        -0.0724
     13 C10         6.9366   -3.4994   -0.0368 C.ar      1 <0>        -0.1246
     14 C11         7.0999   -4.8675   -0.1968 C.ar      1 <0>         0.1334
     15 C12         5.9896   -5.6867   -0.3388 C.ar      1 <0>        -0.1902
     16 C13         4.7211   -5.1410   -0.3144 C.ar      1 <0>        -0.0589
     17 O2          8.3485   -5.4056   -0.2147 O.3       1 <0>        -0.3223
     18 C14         8.4424   -6.8215   -0.3831 C.3       1 <0>         0.0220
     19 C15         9.9143   -7.2392   -0.3780 C.3       1 <0>        -0.0005
     20 N2         10.5040   -6.9389    0.9335 N.4       1 <0>        -0.3875
     21 C16        11.9495   -7.1894    0.8872 C.3       1 <0>         0.0005
     22 C17        12.5813   -6.8012    2.2258 C.3       1 <0>        -0.1666
     23 C18        11.9521   -7.6386    3.3429 C.3       1 <0>         0.1527
     24 C19        10.4354   -7.4267    3.3339 C.3       1 <0>        -0.1653
     25 C20         9.8831   -7.7916    1.9543 C.3       1 <0>        -0.0062
     26 N3         12.4976   -7.2192    4.6362 N.am      1 <0>        -0.6211
     27 C21        13.2369   -8.1000    5.5481 C.3       1 <0>         0.1005
     28 C22        13.9700   -7.1571    6.5279 C.3       1 <0>        -0.1342
     29 C23        13.0724   -5.8988    6.4856 C.3       1 <0>        -0.1592
     30 C24        12.3904   -5.9766    5.1375 C.2       1 <0>         0.5233
     31 O3         11.8267   -5.0529    4.5900 O.2       1 <0>        -0.5287
     32 H1         -0.8973    0.1743   -4.5523 H         1 <0>         0.1403
     33 H2          0.9729    0.2291   -6.1506 H         1 <0>         0.1437
     34 H3          3.1372   -0.7918   -5.5320 H         1 <0>         0.1363
     35 H4         -0.6598   -0.8764   -2.3718 H         1 <0>         0.1382
     36 H5          5.5411   -1.8875    0.1057 H         1 <0>         0.1497
     37 H6          7.8011   -2.8615    0.0731 H         1 <0>         0.1480
     38 H7          6.1169   -6.7518   -0.4641 H         1 <0>         0.1417
     39 H8          3.8564   -5.7794   -0.4199 H         1 <0>         0.1474
     40 H9          7.9204   -7.3200    0.4337 H         1 <0>         0.0894
     41 H10         7.9874   -7.1055   -1.3320 H         1 <0>         0.1135
     42 H11         9.9891   -8.3089   -0.5737 H         1 <0>         0.1519
     43 H12        10.4505   -6.6900   -1.1519 H         1 <0>         0.1449
     44 H13        12.1286   -8.2472    0.6946 H         1 <0>         0.1322
     45 H14        12.3954   -6.5951    0.0896 H         1 <0>         0.1364
     46 H15        13.6543   -6.9896    2.1900 H         1 <0>         0.1157
     47 H16        12.4031   -5.7435    2.4193 H         1 <0>         0.1040
     48 H17        12.1738   -8.6929    3.1772 H         1 <0>         0.1063
     49 H18         9.9746   -8.0621    4.0901 H         1 <0>         0.1150
     50 H19        10.2126   -6.3819    3.5504 H         1 <0>         0.1047
     51 H20         8.8035   -7.6420    1.9444 H         1 <0>         0.1320
     52 H21        10.1062   -8.8366    1.7389 H         1 <0>         0.1335
     53 H22        12.5466   -8.7456    6.0912 H         1 <0>         0.0786
     54 H23        13.9571   -8.7000    4.9918 H         1 <0>         0.0838
     55 H24        13.9984   -7.5825    7.5310 H         1 <0>         0.0982
     56 H25        14.9755   -6.9311    6.1730 H         1 <0>         0.0866
     57 H26        12.3384   -5.9265    7.2910 H         1 <0>         0.1108
     58 H27        13.6787   -4.9953    6.5518 H         1 <0>         0.1081
     59 H28        10.3397   -5.9697    1.1610 H         1 <0>         0.4331
@<TRIPOS>BOND
     1    1    6 ar
     2    1    2 ar
     3    1   32 1
     4    2    3 ar
     5    2   33 1
     6    3    4 ar
     7    3   34 1
     8    4    9 1
     9    4    5 ar
    10    5    6 ar
    11    5    7 1
    12    6   35 1
    13    7    8 2
    14    8    9 1
    15    8   10 1
    16   10   11 1
    17   11   16 ar
    18   11   12 ar
    19   12   13 ar
    20   12   36 1
    21   13   14 ar
    22   13   37 1
    23   14   15 ar
    24   14   17 1
    25   15   16 ar
    26   15   38 1
    27   16   39 1
    28   17   18 1
    29   18   19 1
    30   18   40 1
    31   18   41 1
    32   19   20 1
    33   19   42 1
    34   19   43 1
    35   20   25 1
    36   20   21 1
    37   20   59 1
    38   21   22 1
    39   21   44 1
    40   21   45 1
    41   22   23 1
    42   22   46 1
    43   22   47 1
    44   23   24 1
    45   23   26 1
    46   23   48 1
    47   24   25 1
    48   24   49 1
    49   24   50 1
    50   25   51 1
    51   25   52 1
    52   26   30 am
    53   26   27 1
    54   27   28 1
    55   27   53 1
    56   27   54 1
    57   28   29 1
    58   28   55 1
    59   28   56 1
    60   29   30 1
    61   29   57 1
    62   29   58 1
    63   30   31 2
@<TRIPOS>MOLECULE
CHEMBL517684
   58    61     0     0     0
SMALL
USER_CHARGES

@<TRIPOS>ATOM
      1 C1          2.9011    1.3066   -3.6666 C.ar      1 <0>        -0.1509
      2 C2          3.1557    2.0392   -2.5219 C.ar      1 <0>        -0.0813
      3 C3          3.3870    1.3922   -1.3236 C.ar      1 <0>        -0.1443
      4 C4          3.3632    0.0059   -1.2691 C.ar      1 <0>         0.1189
      5 C5          3.1070   -0.7269   -2.4192 C.ar      1 <0>        -0.1969
      6 C6          2.8768   -0.0750   -3.6151 C.ar      1 <0>        -0.0824
      7 O1          3.5909   -0.6330   -0.0916 O.3       1 <0>        -0.2577
      8 C7          3.4596   -1.9858   -0.0637 C.ar      1 <0>         0.0792
      9 C8          4.4465   -2.7899   -0.6157 C.ar      1 <0>        -0.1141
     10 C9          4.3137   -4.1640   -0.5876 C.ar      1 <0>        -0.1031
     11 C10         3.1924   -4.7411   -0.0065 C.ar      1 <0>         0.1350
     12 C11         2.2053   -3.9360    0.5461 C.ar      1 <0>        -0.1251
     13 C12         2.3415   -2.5621    0.5218 C.ar      1 <0>        -0.1016
     14 N1          3.0569   -6.1352    0.0218 N.am      1 <0>        -0.6688
     15 C13         4.1450   -6.9150    0.1778 C.2       1 <0>         0.5168
     16 O2          5.2495   -6.4149    0.2138 O.2       1 <0>        -0.5021
     17 C14         3.9896   -8.4084    0.3073 C.3       1 <0>        -0.1183
     18 C15         3.1355   -8.7295    1.5372 C.3       1 <0>        -0.1401
     19 C16         3.0479  -10.2476    1.7083 C.3       1 <0>        -0.0030
     20 N2          4.3951  -10.8020    1.8879 N.4       1 <0>        -0.3840
     21 C17         5.1978  -10.5604    0.6830 C.3       1 <0>        -0.0122
     22 C18         5.3682   -9.0543    0.4725 C.3       1 <0>        -0.1270
     23 C19         4.2998  -12.2479    2.1292 C.3       1 <0>         0.0527
     24 C20         5.6693  -12.7974    2.4353 C.ar      1 <0>        -0.1838
     25 C21         6.4755  -13.2501    1.4057 C.ar      1 <0>        -0.1133
     26 C22         7.7298  -13.7547    1.6783 C.ar      1 <0>        -0.0843
     27 C23         8.1860  -13.8077    2.9979 C.ar      1 <0>        -0.0886
     28 C24         7.3667  -13.3484    4.0322 C.ar      1 <0>        -0.0842
     29 C25         6.1168  -12.8416    3.7441 C.ar      1 <0>        -0.1083
     30 C26         9.5264  -14.3465    3.2976 C.2       1 <0>         0.5089
     31 O3         10.2409  -14.7481    2.3901 O.co2     1 <0>        -0.6720
     32 O4          9.9228  -14.3916    4.4536 O.co2     1 <0>        -0.6718
     33 H1          2.7164    1.8144   -4.6017 H         1 <0>         0.1265
     34 H2          3.1741    3.1182   -2.5649 H         1 <0>         0.1328
     35 H3          3.5866    1.9649   -0.4299 H         1 <0>         0.1334
     36 H4          3.0883   -1.8060   -2.3796 H         1 <0>         0.1275
     37 H5          2.6777   -0.6449   -4.5107 H         1 <0>         0.1261
     38 H6          5.3186   -2.3409   -1.0676 H         1 <0>         0.1370
     39 H7          5.0816   -4.7897   -1.0179 H         1 <0>         0.1462
     40 H8          1.3329   -4.3843    0.9982 H         1 <0>         0.1355
     41 H9          1.5757   -1.9359    0.9552 H         1 <0>         0.1394
     42 H10         2.1799   -6.5392   -0.0708 H         1 <0>         0.4123
     43 H11         3.5067   -8.8034   -0.5865 H         1 <0>         0.1192
     44 H12         3.5931   -8.2893    2.4231 H         1 <0>         0.0962
     45 H13         2.1344   -8.3201    1.4022 H         1 <0>         0.1142
     46 H14         2.4404  -10.4798    2.5830 H         1 <0>         0.1345
     47 H15         2.5900  -10.6868    0.8220 H         1 <0>         0.1308
     48 H16         6.1775  -11.0235    0.8008 H         1 <0>         0.1429
     49 H17         4.6941  -10.9929   -0.1814 H         1 <0>         0.1287
     50 H18         5.9630   -8.8770   -0.4235 H         1 <0>         0.1192
     51 H19         5.8721   -8.6208    1.3363 H         1 <0>         0.0983
     52 H20         3.6371  -12.4322    2.9748 H         1 <0>         0.1320
     53 H21         3.9014  -12.7390    1.2415 H         1 <0>         0.1303
     54 H22         6.1215  -13.2085    0.3862 H         1 <0>         0.1219
     55 H23         8.3576  -14.1083    0.8739 H         1 <0>         0.1388
     56 H24         7.7129  -13.3863    5.0545 H         1 <0>         0.1387
     57 H25         5.4841  -12.4821    4.5421 H         1 <0>         0.1220
     58 H26         4.8370  -10.3593    2.6796 H         1 <0>         0.4237
@<TRIPOS>BOND
     1    1    6 ar
     2    1    2 ar
     3    1   33 1
     4    2    3 ar
     5    2   34 1
     6    3    4 ar
     7    3   35 1
     8    4    5 ar
     9    4    7 1
    10    5    6 ar
    11    5   36 1
    12    6   37 1
    13    7    8 1
    14    8   13 ar
    15    8    9 ar
    16    9   10 ar
    17    9   38 1
    18   10   11 ar
    19   10   39 1
    20   11   12 ar
    21   11   14 1
    22   12   13 ar
    23   12   40 1
    24   13   41 1
    25   14   15 am
    26   14   42 1
    27   15   16 2
    28   15   17 1
    29   17   22 1
    30   17   18 1
    31   17   43 1
    32   18   19 1
    33   18   44 1
    34   18   45 1
    35   19   20 1
    36   19   46 1
    37   19   47 1
    38   20   21 1
    39   20   23 1
    40   20   58 1
    41   21   22 1
    42   21   48 1
    43   21   49 1
    44   22   50 1
    45   22   51 1
    46   23   24 1
    47   23   52 1
    48   23   53 1
    49   24   29 ar
    50   24   25 ar
    51   25   26 ar
    52   25   54 1
    53   26   27 ar
    54   26   55 1
    55   27   28 ar
    56   27   30 1
    57   28   29 ar
    58   28   56 1
    59   29   57 1
    60   30   31 2
    61   30   32 1
@<TRIPOS>MOLECULE
CHEMBL82
   28    28     0     0     0
SMALL
USER_CHARGES

@<TRIPOS>ATOM
      1 C1         -0.0187    1.5258    0.0104 C.3       1 <0>        -0.1499
      2 C2          0.0021   -0.0041    0.0020 C.3       1 <0>        -0.0861
      3 H1         -1.0205   -0.3814    0.0098 H         1 <0>         0.0991
      4 C3          0.7421   -0.5109    1.2415 C.3       1 <0>        -0.0413
      5 S1         -0.1871   -0.0517    2.7303 S.3       1 <0>        -0.2560
      6 C4          0.7074   -0.4901   -1.2379 C.2       1 <0>         0.5406
      7 O1          1.7039   -1.1744   -1.1398 O.2       1 <0>        -0.5341
      8 N1          0.2309   -0.1642   -2.4557 N.am      1 <0>        -0.5870
      9 C5         -0.9612    0.6622   -2.7190 C.3       1 <0>         0.1001
     10 C6         -1.4323    0.2395   -4.1329 C.3       1 <0>        -0.1344
     11 C7         -0.0792    0.0101   -4.8565 C.3       1 <0>        -0.1069
     12 C8          0.8176   -0.5687   -3.7417 C.3       1 <0>         0.0652
     13 H2          0.8397   -1.6561   -3.8134 H         1 <0>         0.0661
     14 C9          2.2140   -0.0156   -3.8646 C.2       1 <0>         0.4962
     15 O2          2.9386   -0.3858   -4.7726 O.co2     1 <0>        -0.7023
     16 O3          2.6192    0.8020   -3.0561 O.co2     1 <0>        -0.6788
     17 H3          1.0039    1.9031    0.0027 H         1 <0>         0.0664
     18 H4         -0.5459    1.8868   -0.8726 H         1 <0>         0.0680
     19 H5         -0.5289    1.8773    0.9072 H         1 <0>         0.0715
     20 H6          0.8346   -1.5958    1.1912 H         1 <0>         0.0908
     21 H7          1.7350   -0.0630    1.2804 H         1 <0>         0.0927
     22 H8          0.5521   -0.5447    3.7401 H         1 <0>         0.0864
     23 H9         -1.7373    0.4540   -1.9825 H         1 <0>         0.0699
     24 H10        -0.6995    1.7202   -2.7069 H         1 <0>         0.0682
     25 H11        -2.0144   -0.6812   -4.0917 H         1 <0>         0.0709
     26 H12        -2.0003    1.0379   -4.6104 H         1 <0>         0.0779
     27 H13        -0.1941   -0.7041   -5.6719 H         1 <0>         0.0749
     28 H14         0.3271    0.9530   -5.2227 H         1 <0>         0.0719
@<TRIPOS>BOND
     1    1    2 1
     2    1   17 1
     3    1   18 1
     4    1   19 1
     5    2    3 1
     6    2    4 1
     7    2    6 1
     8    4    5 1
     9    4   20 1
    10    4   21 1
    11    5   22 1
    12    6    7 2
    13    6    8 am
    14    8   12 1
    15    8    9 1
    16    9   10 1
    17    9   23 1
    18    9   24 1
    19   10   11 1
    20   10   25 1
    21   10   26 1
    22   11   12 1
    23   11   27 1
    24   11   28 1
    25   12   13 1
    26   12   14 1
    27   14   15 2
    28   14   16 1
@<TRIPOS>MOLECULE
CHEMBL480323
   63    66     0     0     0
SMALL
USER_CHARGES

@<TRIPOS>ATOM
      1 C1          6.4310    1.2814   -2.2499 C.ar      1 <0>        -0.1483
      2 C2          5.5411    2.0211   -1.4932 C.ar      1 <0>        -0.0808
      3 C3          4.5844    1.3817   -0.7289 C.ar      1 <0>        -0.1429
      4 C4          4.5168   -0.0043   -0.7214 C.ar      1 <0>         0.1160
      5 C5          5.4108   -0.7442   -1.4821 C.ar      1 <0>        -0.1965
      6 C6          6.3658   -0.0998   -2.2442 C.ar      1 <0>        -0.0817
      7 O1          3.5770   -0.6357    0.0298 O.3       1 <0>        -0.2582
      8 C7          3.4818   -1.9881   -0.0715 C.ar      1 <0>         0.0866
      9 C8          4.4274   -2.7977    0.5414 C.ar      1 <0>        -0.1135
     10 C9          4.3313   -4.1713    0.4388 C.ar      1 <0>        -0.1076
     11 C10         3.2878   -4.7424   -0.2776 C.ar      1 <0>         0.1264
     12 C11         2.3416   -3.9317   -0.8904 C.ar      1 <0>        -0.1191
     13 C12         2.4360   -2.5583   -0.7830 C.ar      1 <0>        -0.0983
     14 N1          3.1900   -6.1360   -0.3824 N.am      1 <0>        -0.6439
     15 C13         4.2962   -6.8989   -0.2783 C.2       1 <0>         0.5013
     16 O2          5.3881   -6.3764   -0.2002 O.2       1 <0>        -0.5040
     17 C14         4.1765   -8.4010   -0.2587 C.3       1 <0>        -0.0337
     18 N2          5.5137   -8.9973   -0.1392 N.4       1 <0>        -0.3509
     19 C15         6.3157   -8.6119   -1.3200 C.3       1 <0>        -0.0054
     20 C16         7.7782   -8.7486   -0.9791 C.3       1 <0>        -0.1391
     21 C17         8.3370  -10.1247   -1.3817 C.3       1 <0>         0.0436
     22 N3          7.3940  -11.2248   -1.0753 N.3       1 <0>        -0.5516
     23 C18         6.7359  -11.0838    0.2040 C.3       1 <0>         0.0434
     24 C19         5.3801  -10.3831   -0.0073 C.3       1 <0>        -0.0303
     25 C20         8.0558  -12.5316   -1.1857 C.3       1 <0>         0.1111
     26 C21         8.4418  -12.7796   -2.6212 C.ar      1 <0>        -0.1120
     27 C22         7.5528  -13.4097   -3.4742 C.ar      1 <0>        -0.1154
     28 C23         7.8993  -13.6404   -4.7891 C.ar      1 <0>        -0.0874
     29 C24         9.1512  -13.2357   -5.2593 C.ar      1 <0>        -0.1188
     30 C25        10.0434  -12.5996   -4.3924 C.ar      1 <0>        -0.0858
     31 C26         9.6812  -12.3710   -3.0814 C.ar      1 <0>        -0.1308
     32 C27         9.5294  -13.4794   -6.6644 C.2       1 <0>         0.5135
     33 O3          8.7464  -14.0367   -7.4206 O.co2     1 <0>        -0.6826
     34 O4         10.6259  -13.1240   -7.0730 O.co2     1 <0>        -0.6823
     35 H1          7.1756    1.7834   -2.8500 H         1 <0>         0.1278
     36 H2          5.5941    3.0998   -1.4994 H         1 <0>         0.1338
     37 H3          3.8900    1.9599   -0.1375 H         1 <0>         0.1338
     38 H4          5.3605   -1.8230   -1.4777 H         1 <0>         0.1266
     39 H5          7.0621   -0.6753   -2.8361 H         1 <0>         0.1271
     40 H6          5.2389   -2.3534    1.0985 H         1 <0>         0.1388
     41 H7          5.0677   -4.8013    0.9153 H         1 <0>         0.1489
     42 H8          1.5298   -4.3754   -1.4477 H         1 <0>         0.1398
     43 H9          1.6978   -1.9278   -1.2562 H         1 <0>         0.1433
     44 H10         2.3262   -6.5518   -0.5299 H         1 <0>         0.4223
     45 H11         3.5655   -8.7058    0.5909 H         1 <0>         0.1636
     46 H12         3.7087   -8.7402   -1.1830 H         1 <0>         0.1649
     47 H13         6.0727   -9.2671   -2.1564 H         1 <0>         0.1408
     48 H14         6.0981   -7.5779   -1.5878 H         1 <0>         0.1408
     49 H15         8.3380   -7.9723   -1.5007 H         1 <0>         0.1152
     50 H16         7.9059   -8.6146    0.0951 H         1 <0>         0.0771
     51 H17         8.5426  -10.1233   -2.4522 H         1 <0>         0.1009
     52 H18         9.2694  -10.2985   -0.8447 H         1 <0>         0.0569
     53 H19         6.5735  -12.0688    0.6415 H         1 <0>         0.1142
     54 H20         7.3568  -10.4845    0.8699 H         1 <0>         0.0630
     55 H21         4.7355  -10.5964    0.8454 H         1 <0>         0.1296
     56 H22         4.9137  -10.7805   -0.9087 H         1 <0>         0.1397
     57 H23         8.9500  -12.5398   -0.5625 H         1 <0>         0.0488
     58 H24         7.3736  -13.3137   -0.8526 H         1 <0>         0.0865
     59 H25         6.5854  -13.7220   -3.1093 H         1 <0>         0.1116
     60 H26         7.2048  -14.1329   -5.4535 H         1 <0>         0.1273
     61 H27        11.0128  -12.2842   -4.7491 H         1 <0>         0.1273
     62 H28        10.3681  -11.8755   -2.4113 H         1 <0>         0.1083
     63 H29         5.9598   -8.6326    0.6892 H         1 <0>         0.4205
@<TRIPOS>BOND
     1    1    6 ar
     2    1    2 ar
     3    1   35 1
     4    2    3 ar
     5    2   36 1
     6    3    4 ar
     7    3   37 1
     8    4    5 ar
     9    4    7 1
    10    5    6 ar
    11    5   38 1
    12    6   39 1
    13    7    8 1
    14    8   13 ar
    15    8    9 ar
    16    9   10 ar
    17    9   40 1
    18   10   11 ar
    19   10   41 1
    20   11   12 ar
    21   11   14 1
    22   12   13 ar
    23   12   42 1
    24   13   43 1
    25   14   15 am
    26   14   44 1
    27   15   16 2
    28   15   17 1
    29   17   18 1
    30   17   45 1
    31   17   46 1
    32   18   24 1
    33   18   19 1
    34   18   63 1
    35   19   20 1
    36   19   47 1
    37   19   48 1
    38   20   21 1
    39   20   49 1
    40   20   50 1
    41   21   22 1
    42   21   51 1
    43   21   52 1
    44   22   23 1
    45   22   25 1
    46   23   24 1
    47   23   53 1
    48   23   54 1
    49   24   55 1
    50   24   56 1
    51   25   26 1
    52   25   57 1
    53   25   58 1
    54   26   31 ar
    55   26   27 ar
    56   27   28 ar
    57   27   59 1
    58   28   29 ar
    59   28   60 1
    60   29   30 ar
    61   29   32 1
    62   30   31 ar
    63   30   61 1
    64   31   62 1
    65   32   33 2
    66   32   34 1
@<TRIPOS>MOLECULE
CHEMBL480323__1
   63    66     0     0     0
SMALL
USER_CHARGES

@<TRIPOS>ATOM
      1 C1          6.4310    1.2814   -2.2499 C.ar      1 <0>        -0.1513
      2 C2          5.5411    2.0211   -1.4932 C.ar      1 <0>        -0.0820
      3 C3          4.5844    1.3817   -0.7289 C.ar      1 <0>        -0.1452
      4 C4          4.5168   -0.0043   -0.7214 C.ar      1 <0>         0.1187
      5 C5          5.4108   -0.7442   -1.4821 C.ar      1 <0>        -0.1960
      6 C6          6.3658   -0.0998   -2.2442 C.ar      1 <0>        -0.0821
      7 O1          3.5770   -0.6357    0.0298 O.3       1 <0>        -0.2577
      8 C7          3.4818   -1.9881   -0.0715 C.ar      1 <0>         0.0717
      9 C8          4.4274   -2.7977    0.5414 C.ar      1 <0>        -0.1118
     10 C9          4.3313   -4.1713    0.4388 C.ar      1 <0>        -0.1127
     11 C10         3.2878   -4.7424   -0.2776 C.ar      1 <0>         0.1451
     12 C11         2.3416   -3.9317   -0.8904 C.ar      1 <0>        -0.1317
     13 C12         2.4360   -2.5583   -0.7830 C.ar      1 <0>        -0.0976
     14 N1          3.1900   -6.1360   -0.3824 N.am      1 <0>        -0.6689
     15 C13         4.2962   -6.8989   -0.2783 C.2       1 <0>         0.5125
     16 O2          5.3881   -6.3764   -0.2002 O.2       1 <0>        -0.4966
     17 C14         4.1765   -8.4010   -0.2587 C.3       1 <0>         0.0413
     18 N2          5.5137   -8.9973   -0.1392 N.3       1 <0>        -0.5378
     19 C15         6.3533   -8.6590   -1.3136 C.3       1 <0>         0.0412
     20 C16         7.8023   -8.7501   -0.9076 C.3       1 <0>        -0.1324
     21 C17         8.4077  -10.1359   -1.1829 C.3       1 <0>        -0.0097
     22 N3          7.4892  -11.2408   -0.8274 N.4       1 <0>        -0.3821
     23 C18         6.8005  -10.9995    0.4199 C.3       1 <0>        -0.0134
     24 C19         5.4296  -10.3709    0.1082 C.3       1 <0>         0.0477
     25 C20         8.2622  -12.4847   -0.7120 C.3       1 <0>         0.0506
     26 C21         8.8318  -12.8489   -2.0589 C.ar      1 <0>        -0.1829
     27 C22         8.1021  -13.6472   -2.9221 C.ar      1 <0>        -0.1103
     28 C23         8.6172  -13.9849   -4.1561 C.ar      1 <0>        -0.0851
     29 C24         9.8789  -13.5186   -4.5340 C.ar      1 <0>        -0.0897
     30 C25        10.6098  -12.7126   -3.6574 C.ar      1 <0>        -0.0845
     31 C26        10.0797  -12.3787   -2.4287 C.ar      1 <0>        -0.1103
     32 C27        10.4369  -13.8760   -5.8522 C.2       1 <0>         0.5091
     33 O3          9.7949  -14.5819   -6.6170 O.co2     1 <0>        -0.6725
     34 O4         11.5415  -13.4662   -6.1800 O.co2     1 <0>        -0.6721
     35 H1          7.1756    1.7834   -2.8500 H         1 <0>         0.1263
     36 H2          5.5941    3.0998   -1.4994 H         1 <0>         0.1323
     37 H3          3.8900    1.9599   -0.1375 H         1 <0>         0.1329
     38 H4          5.3605   -1.8230   -1.4777 H         1 <0>         0.1279
     39 H5          7.0621   -0.6753   -2.8361 H         1 <0>         0.1259
     40 H6          5.2389   -2.3534    1.0985 H         1 <0>         0.1351
     41 H7          5.0677   -4.8013    0.9153 H         1 <0>         0.1507
     42 H8          1.5298   -4.3754   -1.4477 H         1 <0>         0.1357
     43 H9          1.6978   -1.9278   -1.2562 H         1 <0>         0.1387
     44 H10         2.3262   -6.5518   -0.5299 H         1 <0>         0.4145
     45 H11         3.5655   -8.7058    0.5909 H         1 <0>         0.1184
     46 H12         3.7087   -8.7402   -1.1830 H         1 <0>         0.0787
     47 H13         6.1543   -9.3634   -2.1212 H         1 <0>         0.0430
     48 H14         6.1287   -7.6450   -1.6445 H         1 <0>         0.1130
     49 H15         8.3705   -8.0015   -1.4599 H         1 <0>         0.1106
     50 H16         7.8836   -8.5356    0.1580 H         1 <0>         0.1006
     51 H17         8.6527  -10.2088   -2.2425 H         1 <0>         0.1296
     52 H18         9.3251  -10.2406   -0.6037 H         1 <0>         0.1274
     53 H19         6.6594  -11.9422    0.9486 H         1 <0>         0.1384
     54 H20         7.3855  -10.3156    1.0348 H         1 <0>         0.1404
     55 H21         4.7649  -10.5364    0.9561 H         1 <0>         0.1170
     56 H22         5.0079  -10.8619   -0.7689 H         1 <0>         0.0447
     57 H23         9.0753  -12.3425   -0.0001 H         1 <0>         0.1309
     58 H24         7.6108  -13.2864   -0.3642 H         1 <0>         0.1315
     59 H25         7.1269  -14.0069   -2.6286 H         1 <0>         0.1208
     60 H26         8.0469  -14.6086   -4.8285 H         1 <0>         0.1380
     61 H27        11.5856  -12.3486   -3.9430 H         1 <0>         0.1384
     62 H28        10.6417  -11.7522   -1.7519 H         1 <0>         0.1211
     63 H29         6.8067  -11.3485   -1.5627 H         1 <0>         0.4160
@<TRIPOS>BOND
     1    1    6 ar
     2    1    2 ar
     3    1   35 1
     4    2    3 ar
     5    2   36 1
     6    3    4 ar
     7    3   37 1
     8    4    5 ar
     9    4    7 1
    10    5    6 ar
    11    5   38 1
    12    6   39 1
    13    7    8 1
    14    8   13 ar
    15    8    9 ar
    16    9   10 ar
    17    9   40 1
    18   10   11 ar
    19   10   41 1
    20   11   12 ar
    21   11   14 1
    22   12   13 ar
    23   12   42 1
    24   13   43 1
    25   14   15 am
    26   14   44 1
    27   15   16 2
    28   15   17 1
    29   17   18 1
    30   17   45 1
    31   17   46 1
    32   18   24 1
    33   18   19 1
    34   19   20 1
    35   19   47 1
    36   19   48 1
    37   20   21 1
    38   20   49 1
    39   20   50 1
    40   21   22 1
    41   21   51 1
    42   21   52 1
    43   22   23 1
    44   22   25 1
    45   22   63 1
    46   23   24 1
    47   23   53 1
    48   23   54 1
    49   24   55 1
    50   24   56 1
    51   25   26 1
    52   25   57 1
    53   25   58 1
    54   26   31 ar
    55   26   27 ar
    56   27   28 ar
    57   27   59 1
    58   28   29 ar
    59   28   60 1
    60   29   30 ar
    61   29   32 1
    62   30   31 ar
    63   30   61 1
    64   31   62 1
    65   32   33 2
    66   32   34 1
@<TRIPOS>MOLECULE
CHEMBL561639
   48    51     0     0     0
SMALL
USER_CHARGES

@<TRIPOS>ATOM
      1 C1          1.5158   -0.1612    1.9951 C.ar      1 <0>        -0.1295
      2 C2          2.6110    0.4104    1.4129 C.ar      1 <0>        -0.0760
      3 C3          2.4625    1.5444    0.6074 C.ar      1 <0>        -0.1758
      4 C4          1.1919    2.0916    0.3994 C.ar      1 <0>        -0.0483
      5 C5          0.0983    1.5180    0.9828 C.ar      1 <0>        -0.1260
      6 C6          0.2480    0.3860    1.7867 C.ar      1 <0>         0.0221
      7 C7         -0.9387   -0.2348    2.4186 C.2       1 <0>        -0.1139
      8 C8         -2.2154    0.2925    2.2194 C.2       1 <0>        -0.1419
      9 C9         -3.2323   -0.3473    2.8397 C.2       1 <0>        -0.2009
     10 S1         -2.3903   -1.6692    3.6871 S.3       1 <0>         0.1842
     11 C10        -0.8148   -1.3404    3.2064 C.2       1 <0>        -0.2341
     12 C11         3.6445    2.1630   -0.0216 C.2       1 <0>         0.4380
     13 O1          3.5371    3.2246   -0.6055 O.2       1 <0>        -0.4413
     14 C12         4.9570    1.4942    0.0576 C.ar      1 <0>        -0.1725
     15 C13         5.0349    0.0982    0.0381 C.ar      1 <0>        -0.0435
     16 C14         6.2618   -0.5218    0.1117 C.ar      1 <0>        -0.1492
     17 C15         7.4225    0.2380    0.2052 C.ar      1 <0>         0.1377
     18 C16         7.3496    1.6263    0.2249 C.ar      1 <0>        -0.2100
     19 C17         6.1272    2.2546    0.1464 C.ar      1 <0>        -0.0243
     20 O2          8.6298   -0.3772    0.2780 O.3       1 <0>        -0.3208
     21 C18         9.7816    0.4634    0.3723 C.3       1 <0>         0.0291
     22 C19        11.0406   -0.4029    0.4442 C.3       1 <0>         0.0325
     23 H1         11.9279    0.2295    0.4146 H         1 <0>         0.1599
     24 C20        11.0634   -1.3952   -0.7374 C.3       1 <0>        -0.1389
     25 C21        11.6380   -2.6867   -0.0983 C.3       1 <0>        -0.1424
     26 C22        11.0217   -2.6339    1.3219 C.3       1 <0>        -0.0049
     27 N1         11.0324   -1.1976    1.6862 N.4       1 <0>        -0.5142
     28 H2          1.6296   -1.0394    2.6133 H         1 <0>         0.1299
     29 H3          3.5915   -0.0128    1.5745 H         1 <0>         0.1359
     30 H4          1.0759    2.9673   -0.2219 H         1 <0>         0.1375
     31 H5         -0.8827    1.9405    0.8227 H         1 <0>         0.1340
     32 H6         -2.3820    1.1641    1.6038 H         1 <0>         0.1437
     33 H7         -4.2870   -0.1156    2.8256 H         1 <0>         0.1900
     34 H8          0.0860   -1.8783    3.4627 H         1 <0>         0.1855
     35 H9          4.1338   -0.4927   -0.0341 H         1 <0>         0.1493
     36 H10         6.3229   -1.6000    0.0971 H         1 <0>         0.1407
     37 H11         8.2536    2.2128    0.2976 H         1 <0>         0.1350
     38 H12         6.0718    3.3331    0.1572 H         1 <0>         0.1404
     39 H13         9.8338    1.1080   -0.5051 H         1 <0>         0.1124
     40 H14         9.7110    1.0771    1.2703 H         1 <0>         0.0910
     41 H15        10.0557   -1.5676   -1.1154 H         1 <0>         0.1104
     42 H16        11.7174   -1.0342   -1.5312 H         1 <0>         0.1149
     43 H17        11.3013   -3.5723   -0.6373 H         1 <0>         0.1187
     44 H18        12.7264   -2.6493   -0.0532 H         1 <0>         0.0992
     45 H19        10.0007   -3.0153    1.3070 H         1 <0>         0.1358
     46 H20        11.6311   -3.2059    2.0216 H         1 <0>         0.1372
     47 H21        11.8573   -0.9887    2.2284 H         1 <0>         0.4317
     48 H22        10.2084   -0.9769    2.2251 H         1 <0>         0.4319
@<TRIPOS>BOND
     1    1    6 ar
     2    1    2 ar
     3    1   28 1
     4    2    3 ar
     5    2   29 1
     6    3    4 ar
     7    3   12 1
     8    4    5 ar
     9    4   30 1
    10    5    6 ar
    11    5   31 1
    12    6    7 1
    13    7   11 2
    14    7    8 1
    15    8    9 2
    16    8   32 1
    17    9   10 1
    18    9   33 1
    19   10   11 1
    20   11   34 1
    21   12   13 2
    22   12   14 1
    23   14   19 ar
    24   14   15 ar
    25   15   16 ar
    26   15   35 1
    27   16   17 ar
    28   16   36 1
    29   17   18 ar
    30   17   20 1
    31   18   19 ar
    32   18   37 1
    33   19   38 1
    34   20   21 1
    35   21   22 1
    36   21   39 1
    37   21   40 1
    38   22   23 1
    39   22   27 1
    40   22   24 1
    41   24   25 1
    42   24   41 1
    43   24   42 1
    44   25   26 1
    45   25   43 1
    46   25   44 1
    47   26   27 1
    48   26   45 1
    49   26   46 1
    50   27   47 1
    51   27   48 1
@<TRIPOS>MOLECULE
CHEMBL518754
   56    59     0     0     0
SMALL
USER_CHARGES

@<TRIPOS>ATOM
      1 C1          2.9017    1.3063   -3.6671 C.ar      1 <0>        -0.1491
      2 C2          3.1561    2.0390   -2.5224 C.ar      1 <0>        -0.0803
      3 C3          3.3872    1.3921   -1.3240 C.ar      1 <0>        -0.1431
      4 C4          3.3635    0.0058   -1.2694 C.ar      1 <0>         0.1172
      5 C5          3.1075   -0.7271   -2.4196 C.ar      1 <0>        -0.1974
      6 C6          2.8776   -0.0752   -3.6155 C.ar      1 <0>        -0.0825
      7 O1          3.5909   -0.6330   -0.0919 O.3       1 <0>        -0.2582
      8 C7          3.4596   -1.9858   -0.0639 C.ar      1 <0>         0.0839
      9 C8          4.4466   -2.7899   -0.6158 C.ar      1 <0>        -0.1153
     10 C9          4.3137   -4.1640   -0.5877 C.ar      1 <0>        -0.1022
     11 C10         3.1924   -4.7411   -0.0066 C.ar      1 <0>         0.1291
     12 C11         2.2053   -3.9359    0.5460 C.ar      1 <0>        -0.1229
     13 C12         2.3415   -2.5621    0.5216 C.ar      1 <0>        -0.1017
     14 N1          3.0569   -6.1352    0.0218 N.am      1 <0>        -0.6666
     15 C13         4.1450   -6.9150    0.1778 C.2       1 <0>         0.5120
     16 O2          5.2495   -6.4149    0.2138 O.2       1 <0>        -0.5082
     17 C14         3.9896   -8.4084    0.3073 C.3       1 <0>        -0.1559
     18 C15         5.3677   -9.0522    0.4723 C.3       1 <0>        -0.1297
     19 C16         5.2098  -10.5683    0.6038 C.3       1 <0>         0.0133
     20 H1          4.6508  -10.9509   -0.2502 H         1 <0>         0.1550
     21 C17         6.5919  -11.2234    0.6435 C.3       1 <0>         0.0865
     22 N2          6.4444  -12.6602    0.8889 N.am      1 <0>        -0.5995
     23 C18         6.4165  -13.2250    2.1096 C.2       1 <0>         0.5686
     24 O3          6.5087  -12.6338    3.1664 O.2       1 <0>        -0.4640
     25 C19         6.2547  -14.6854    1.9492 C.ar      1 <0>        -0.1604
     26 C20         6.1635  -15.7514    2.8298 C.ar      1 <0>        -0.0316
     27 C21         6.0116  -17.0383    2.3375 C.ar      1 <0>        -0.0872
     28 C22         5.9504  -17.2647    0.9753 C.ar      1 <0>        -0.0801
     29 C23         6.0402  -16.2082    0.0826 C.ar      1 <0>        -0.0351
     30 C24         6.1924  -14.9164    0.5602 C.ar      1 <0>        -0.1471
     31 C25         6.3133  -13.5878   -0.0765 C.2       1 <0>         0.5730
     32 O4          6.2988  -13.3703   -1.2712 O.2       1 <0>        -0.4355
     33 N3          4.4847  -10.8795    1.8429 N.4       1 <0>        -0.6388
     34 H2          2.7172    1.8141   -4.6022 H         1 <0>         0.1276
     35 H3          3.1744    3.1180   -2.5654 H         1 <0>         0.1340
     36 H4          3.5865    1.9649   -0.4303 H         1 <0>         0.1339
     37 H5          3.0888   -1.8062   -2.3799 H         1 <0>         0.1265
     38 H6          2.6787   -0.6452   -4.5111 H         1 <0>         0.1264
     39 H7          5.3186   -2.3410   -1.0678 H         1 <0>         0.1377
     40 H8          5.0817   -4.7898   -1.0179 H         1 <0>         0.1453
     41 H9          1.3329   -4.3843    0.9980 H         1 <0>         0.1359
     42 H10         1.5757   -1.9359    0.9550 H         1 <0>         0.1408
     43 H11         2.1799   -6.5392   -0.0707 H         1 <0>         0.4140
     44 H12         3.3757   -8.6355    1.1789 H         1 <0>         0.0937
     45 H13         3.5092   -8.8027   -0.5881 H         1 <0>         0.1169
     46 H14         5.9815   -8.8251   -0.3993 H         1 <0>         0.1310
     47 H15         5.8481   -8.6579    1.3677 H         1 <0>         0.1080
     48 H16         7.0954  -11.0676   -0.3106 H         1 <0>         0.1475
     49 H17         7.1828  -10.7770    1.4433 H         1 <0>         0.1293
     50 H18         6.2111  -15.5804    3.8951 H         1 <0>         0.1478
     51 H19         5.9408  -17.8698    3.0231 H         1 <0>         0.1515
     52 H20         5.8322  -18.2720    0.6039 H         1 <0>         0.1518
     53 H21         5.9922  -16.3911   -0.9808 H         1 <0>         0.1489
     54 H22         5.0021  -10.5254    2.6334 H         1 <0>         0.4408
     55 H23         3.5732  -10.4475    1.8167 H         1 <0>         0.4364
     56 H24         4.3806  -11.8794    1.9296 H         1 <0>         0.4281
@<TRIPOS>BOND
     1    1    6 ar
     2    1    2 ar
     3    1   34 1
     4    2    3 ar
     5    2   35 1
     6    3    4 ar
     7    3   36 1
     8    4    5 ar
     9    4    7 1
    10    5    6 ar
    11    5   37 1
    12    6   38 1
    13    7    8 1
    14    8   13 ar
    15    8    9 ar
    16    9   10 ar
    17    9   39 1
    18   10   11 ar
    19   10   40 1
    20   11   12 ar
    21   11   14 1
    22   12   13 ar
    23   12   41 1
    24   13   42 1
    25   14   15 am
    26   14   43 1
    27   15   16 2
    28   15   17 1
    29   17   18 1
    30   17   44 1
    31   17   45 1
    32   18   19 1
    33   18   46 1
    34   18   47 1
    35   19   20 1
    36   19   21 1
    37   19   33 1
    38   21   22 1
    39   21   48 1
    40   21   49 1
    41   22   31 am
    42   22   23 am
    43   23   24 2
    44   23   25 1
    45   25   30 ar
    46   25   26 ar
    47   26   27 ar
    48   26   50 1
    49   27   28 ar
    50   27   51 1
    51   28   29 ar
    52   28   52 1
    53   29   30 ar
    54   29   53 1
    55   30   31 1
    56   31   32 2
    57   33   54 1
    58   33   55 1
    59   33   56 1
@<TRIPOS>MOLECULE
CHEMBL431019
   52    54     0     0     0
SMALL
USER_CHARGES

@<TRIPOS>ATOM
      1 C1         -0.4283    0.8261    0.6967 C.ar      1 <0>        -0.1307
      2 C2          0.6256    1.6949    0.4834 C.ar      1 <0>        -0.1203
      3 C3          1.8987    1.1987    0.2734 C.ar      1 <0>        -0.1212
      4 C4          2.1179   -0.1661    0.2770 C.ar      1 <0>        -0.0701
      5 C5          1.0641   -1.0348    0.4911 C.ar      1 <0>        -0.1149
      6 C6         -0.2091   -0.5387    0.6998 C.ar      1 <0>        -0.1171
      7 C7          3.5055   -0.7070    0.0469 C.3       1 <0>        -0.0730
      8 C8          4.2259   -0.8506    1.3891 C.3       1 <0>        -0.0839
      9 H1          3.6241   -1.4629    2.0607 H         1 <0>         0.1038
     10 C9          4.4322    0.5334    2.0078 C.3       1 <0>        -0.1274
     11 C10         5.3347    1.3510    1.1201 C.2       1 <0>         0.5211
     12 O1          5.8476    0.8440    0.1451 O.2       1 <0>        -0.4845
     13 N1          5.5717    2.6458    1.4097 N.am      1 <0>        -0.5939
     14 O2          6.4197    3.4141    0.5756 O.3       1 <0>        -0.3178
     15 C11         5.5642   -1.5089    1.1730 C.2       1 <0>         0.5316
     16 O3          5.9080   -1.8314    0.0555 O.2       1 <0>        -0.5284
     17 N2          6.3790   -1.7392    2.2215 N.am      1 <0>        -0.6945
     18 C12         7.6801   -2.3791    2.0115 C.3       1 <0>         0.0895
     19 H2          8.0946   -2.0547    1.0570 H         1 <0>         0.0793
     20 C13         8.6318   -1.9828    3.1419 C.3       1 <0>        -0.0404
     21 C14         8.9008   -0.5014    3.0760 C.2       1 <0>        -0.1471
     22 C15         9.9374    0.0955    2.4668 C.2       1 <0>         0.0464
     23 N3          9.8483    1.4527    2.6170 N.pl3     1 <0>        -0.5953
     24 H3         10.4830    2.0953    2.2632 H         1 <0>         0.4114
     25 C16         8.7236    1.7703    3.3451 C.ar      1 <0>         0.1034
     26 C17         8.0773    0.5605    3.6591 C.ar      1 <0>        -0.0875
     27 C18         6.8918    0.5751    4.3959 C.ar      1 <0>        -0.0727
     28 C19         6.3624    1.7664    4.8058 C.ar      1 <0>        -0.1582
     29 C20         6.9938    2.9626    4.4951 C.ar      1 <0>        -0.1123
     30 C21         8.1698    2.9708    3.7769 C.ar      1 <0>        -0.1262
     31 C22         7.5078   -3.8762    2.0015 C.2       1 <0>         0.4903
     32 O4          6.4008   -4.3635    2.1556 O.co2     1 <0>        -0.6858
     33 O5          8.4753   -4.6001    1.8394 O.co2     1 <0>        -0.7013
     34 H4         -1.4221    1.2139    0.8653 H         1 <0>         0.1171
     35 H5          0.4544    2.7612    0.4806 H         1 <0>         0.1174
     36 H6          2.7219    1.8774    0.1060 H         1 <0>         0.1158
     37 H7          1.2353   -2.1012    0.4936 H         1 <0>         0.1251
     38 H8         -1.0325   -1.2175    0.8667 H         1 <0>         0.1198
     39 H9          3.4400   -1.6818   -0.4364 H         1 <0>         0.0854
     40 H10         4.0615   -0.0211   -0.5922 H         1 <0>         0.0947
     41 H11         3.4692    1.0343    2.1070 H         1 <0>         0.1023
     42 H12         4.8895    0.4271    2.9916 H         1 <0>         0.1024
     43 H13         5.1615    3.0513    2.1895 H         1 <0>         0.4008
     44 H14         6.5292    4.3307    0.8635 H         1 <0>         0.3765
     45 H15         6.1041   -1.4813    3.1153 H         1 <0>         0.3800
     46 H16         8.1773   -2.2271    4.1020 H         1 <0>         0.0661
     47 H17         9.5698   -2.5275    3.0349 H         1 <0>         0.0891
     48 H18        10.7252   -0.4192    1.9369 H         1 <0>         0.1688
     49 H19         6.3945   -0.3518    4.6408 H         1 <0>         0.1173
     50 H20         5.4451    1.7771    5.3759 H         1 <0>         0.1195
     51 H21         6.5628    3.8962    4.8256 H         1 <0>         0.1180
     52 H22         8.6529    3.9069    3.5391 H         1 <0>         0.1114
@<TRIPOS>BOND
     1    1    6 ar
     2    1    2 ar
     3    1   34 1
     4    2    3 ar
     5    2   35 1
     6    3    4 ar
     7    3   36 1
     8    4    5 ar
     9    4    7 1
    10    5    6 ar
    11    5   37 1
    12    6   38 1
    13    7    8 1
    14    7   39 1
    15    7   40 1
    16    8    9 1
    17    8   10 1
    18    8   15 1
    19   10   11 1
    20   10   41 1
    21   10   42 1
    22   11   12 2
    23   11   13 am
    24   13   14 1
    25   13   43 1
    26   14   44 1
    27   15   16 2
    28   15   17 am
    29   17   18 1
    30   17   45 1
    31   18   19 1
    32   18   20 1
    33   18   31 1
    34   20   21 1
    35   20   46 1
    36   20   47 1
    37   21   26 1
    38   21   22 2
    39   22   23 1
    40   22   48 1
    41   23   24 1
    42   23   25 1
    43   25   30 ar
    44   25   26 ar
    45   26   27 ar
    46   27   28 ar
    47   27   49 1
    48   28   29 ar
    49   28   50 1
    50   29   30 ar
    51   29   51 1
    52   30   52 1
    53   31   32 2
    54   31   33 1
@<TRIPOS>MOLECULE
CHEMBL85512
   42    43     0     0     0
SMALL
USER_CHARGES

@<TRIPOS>ATOM
      1 C1         -0.6022    0.7320    1.1604 C.ar      1 <0>        -0.1308
      2 C2          0.4097    1.5919    0.7765 C.ar      1 <0>        -0.1203
      3 C3          1.6538    1.0901    0.4429 C.ar      1 <0>        -0.1218
      4 C4          1.8860   -0.2717    0.4936 C.ar      1 <0>        -0.0699
      5 C5          0.8744   -1.1316    0.8784 C.ar      1 <0>        -0.1150
      6 C6         -0.3701   -0.6298    1.2106 C.ar      1 <0>        -0.1171
      7 C7          3.2420   -0.8189    0.1290 C.3       1 <0>        -0.0754
      8 C8          4.1252   -0.8669    1.3774 C.3       1 <0>        -0.0769
      9 H1          3.6078   -1.4108    2.1677 H         1 <0>         0.1013
     10 C9          4.4205    0.5586    1.8483 C.3       1 <0>        -0.1305
     11 C10         5.2427    1.2718    0.8060 C.2       1 <0>         0.5105
     12 O1          5.5497    0.7010   -0.2191 O.2       1 <0>        -0.4759
     13 N1          5.6368    2.5439    1.0130 N.am      1 <0>        -0.6035
     14 O2          6.4093    3.2140    0.0336 O.3       1 <0>        -0.3183
     15 C11         5.4195   -1.5662    1.0505 C.2       1 <0>         0.5392
     16 O3          5.6593   -1.8951   -0.0919 O.2       1 <0>        -0.4989
     17 N2          6.3104   -1.8261    2.0278 N.am      1 <0>        -0.5967
     18 C12         6.1131   -1.5580    3.4640 C.3       1 <0>         0.0960
     19 C13         7.5439   -1.4312    4.0440 C.3       1 <0>        -0.1332
     20 C14         8.3076   -2.5068    3.2271 C.3       1 <0>        -0.1065
     21 C15         7.6376   -2.4299    1.8389 C.3       1 <0>         0.0691
     22 H2          8.2367   -1.8076    1.1742 H         1 <0>         0.0626
     23 C16         7.4935   -3.8133    1.2590 C.2       1 <0>         0.4974
     24 O4          8.4772   -4.4117    0.8579 O.co2     1 <0>        -0.7047
     25 O5          6.3933   -4.3343    1.1910 O.co2     1 <0>        -0.6792
     26 H3         -1.5729    1.1244    1.4254 H         1 <0>         0.1173
     27 H4          0.2282    2.6558    0.7369 H         1 <0>         0.1178
     28 H5          2.4442    1.7619    0.1423 H         1 <0>         0.1166
     29 H6          1.0557   -2.1955    0.9176 H         1 <0>         0.1250
     30 H7         -1.1606   -1.3017    1.5109 H         1 <0>         0.1199
     31 H8          3.1310   -1.8246   -0.2764 H         1 <0>         0.0864
     32 H9          3.7047   -0.1747   -0.6188 H         1 <0>         0.0983
     33 H10         3.4826    1.0930    1.9994 H         1 <0>         0.1079
     34 H11         4.9742    0.5239    2.7866 H         1 <0>         0.1059
     35 H12         5.3913    3.0004    1.8329 H         1 <0>         0.4027
     36 H13         6.6440    4.1216    0.2710 H         1 <0>         0.3812
     37 H14         5.5631   -0.6275    3.6041 H         1 <0>         0.0657
     38 H15         5.5847   -2.3867    3.9355 H         1 <0>         0.0644
     39 H16         7.9532   -0.4377    3.8606 H         1 <0>         0.0681
     40 H17         7.5564   -1.6669    5.1081 H         1 <0>         0.0766
     41 H18         9.3673   -2.2602    3.1607 H         1 <0>         0.0732
     42 H19         8.1673   -3.4951    3.6648 H         1 <0>         0.0714
@<TRIPOS>BOND
     1    1    6 ar
     2    1    2 ar
     3    1   26 1
     4    2    3 ar
     5    2   27 1
     6    3    4 ar
     7    3   28 1
     8    4    5 ar
     9    4    7 1
    10    5    6 ar
    11    5   29 1
    12    6   30 1
    13    7    8 1
    14    7   31 1
    15    7   32 1
    16    8    9 1
    17    8   10 1
    18    8   15 1
    19   10   11 1
    20   10   33 1
    21   10   34 1
    22   11   12 2
    23   11   13 am
    24   13   14 1
    25   13   35 1
    26   14   36 1
    27   15   16 2
    28   15   17 am
    29   17   21 1
    30   17   18 1
    31   18   19 1
    32   18   37 1
    33   18   38 1
    34   19   20 1
    35   19   39 1
    36   19   40 1
    37   20   21 1
    38   20   41 1
    39   20   42 1
    40   21   22 1
    41   21   23 1
    42   23   24 2
    43   23   25 1
@<TRIPOS>MOLECULE
CHEMBL479759
   68    72     0     0     0
SMALL
USER_CHARGES

@<TRIPOS>ATOM
      1 C1          2.5388   -0.0708    1.3193 C.3       1 <0>        -0.0558
      2 N1          2.3897   -1.5075    1.0516 N.4       1 <0>        -0.3822
      3 C2          3.2850   -2.2657    1.9356 C.3       1 <0>         0.0473
      4 C3          2.8529   -2.0800    3.3674 C.ar      1 <0>        -0.1808
      5 C4          3.3700   -1.0349    4.1126 C.ar      1 <0>        -0.1123
      6 C5          2.9795   -0.8590    5.4236 C.ar      1 <0>        -0.0846
      7 C6          2.0591   -1.7389    5.9988 C.ar      1 <0>        -0.0897
      8 C7          1.5409   -2.7915    5.2402 C.ar      1 <0>        -0.0842
      9 C8          1.9367   -2.9520    3.9287 C.ar      1 <0>        -0.1093
     10 C9          1.6368   -1.5576    7.4008 C.2       1 <0>         0.5090
     11 O1          2.0925   -0.6355    8.0623 O.co2     1 <0>        -0.6723
     12 O2          0.8311   -2.3294    7.9014 O.co2     1 <0>        -0.6720
     13 C10         2.7359   -1.7831   -0.3491 C.3       1 <0>         0.0244
     14 C11         1.8034   -0.9934   -1.2698 C.3       1 <0>        -0.1372
     15 C12         2.1640   -1.2805   -2.7288 C.3       1 <0>        -0.1228
     16 C13         2.0087   -2.7768   -3.0075 C.3       1 <0>         0.1502
     17 C14         2.9412   -3.5666   -2.0868 C.3       1 <0>        -0.1334
     18 C15         2.5806   -3.2795   -0.6279 C.3       1 <0>        -0.1414
     19 N2          2.3540   -3.0517   -4.4045 N.pl3     1 <0>        -0.7465
     20 C16         1.8212   -4.1734   -5.0491 C.ar      1 <0>         0.1836
     21 C17         0.9605   -5.0233   -4.3667 C.ar      1 <0>        -0.1594
     22 C18         0.4346   -6.1299   -5.0038 C.ar      1 <0>        -0.1444
     23 C19         0.7660   -6.3928   -6.3251 C.ar      1 <0>         0.0716
     24 C20         1.6261   -5.5445   -7.0072 C.ar      1 <0>        -0.0930
     25 C21         2.1482   -4.4343   -6.3733 C.ar      1 <0>        -0.1528
     26 O3          0.2478   -7.4827   -6.9516 O.3       1 <0>        -0.2611
     27 C22        -0.5962   -8.2811   -6.2485 C.ar      1 <0>         0.1068
     28 C23        -1.9624   -8.0290   -6.2640 C.ar      1 <0>        -0.1275
     29 C24        -2.8220   -8.8366   -5.5514 C.ar      1 <0>        -0.0562
     30 C25        -2.3183   -9.9098   -4.8135 C.ar      1 <0>        -0.0163
     31 C26        -0.9446  -10.1602   -4.8008 C.ar      1 <0>        -0.0748
     32 C27        -0.0919   -9.3512   -5.5201 C.ar      1 <0>        -0.1273
     33 C28        -3.2364  -10.7778   -4.0477 C.2       1 <0>         0.2258
     34 N3         -4.5412  -10.6479   -3.9858 N.2       1 <0>        -0.4682
     35 C29        -5.0317  -11.6169   -3.1974 C.2       1 <0>        -0.0381
     36 C30        -3.9973  -12.3600   -2.7653 C.2       1 <0>        -0.0652
     37 O4         -2.8765  -11.8369   -3.3020 O.3       1 <0>        -0.1967
     38 H1          3.5706    0.2281    1.1344 H         1 <0>         0.1196
     39 H2          1.8745    0.4918    0.6634 H         1 <0>         0.1210
     40 H3          2.2819    0.1337    2.3587 H         1 <0>         0.1304
     41 H4          3.2405   -3.3237    1.6770 H         1 <0>         0.1323
     42 H5          4.3064   -1.9048    1.8146 H         1 <0>         0.1293
     43 H6          4.0814   -0.3556    3.6666 H         1 <0>         0.1216
     44 H7          3.3844   -0.0434    6.0043 H         1 <0>         0.1384
     45 H8          0.8291   -3.4754    5.6783 H         1 <0>         0.1383
     46 H9          1.5337   -3.7626    3.3397 H         1 <0>         0.1213
     47 H10         3.7677   -1.4842   -0.5340 H         1 <0>         0.1359
     48 H11         0.7716   -1.2923   -1.0850 H         1 <0>         0.0892
     49 H12         1.9141    0.0727   -1.0712 H         1 <0>         0.0941
     50 H13         1.4997   -0.7178   -3.3847 H         1 <0>         0.0896
     51 H14         3.1958   -0.9816   -2.9136 H         1 <0>         0.0790
     52 H15         0.9769   -3.0757   -2.8227 H         1 <0>         0.0838
     53 H16         2.8306   -4.6326   -2.2854 H         1 <0>         0.0867
     54 H17         3.9730   -3.2677   -2.2717 H         1 <0>         0.0771
     55 H18         3.2450   -3.8421    0.0280 H         1 <0>         0.0927
     56 H19         1.5488   -3.5784   -0.4430 H         1 <0>         0.0882
     57 H20         2.9519   -2.4561   -4.8825 H         1 <0>         0.4012
     58 H21         0.7028   -4.8189   -3.3380 H         1 <0>         0.1225
     59 H22        -0.2344   -6.7911   -4.4731 H         1 <0>         0.1275
     60 H23         1.8838   -5.7500   -8.0357 H         1 <0>         0.1347
     61 H24         2.8143   -3.7716   -6.9058 H         1 <0>         0.1300
     62 H25        -2.3511   -7.1988   -6.8350 H         1 <0>         0.1419
     63 H26        -3.8838   -8.6396   -5.5634 H         1 <0>         0.1473
     64 H27        -0.5513  -10.9891   -4.2309 H         1 <0>         0.1400
     65 H28         0.9702   -9.5469   -5.5143 H         1 <0>         0.1405
     66 H29        -6.0722  -11.7721   -2.9531 H         1 <0>         0.1898
     67 H30        -4.0543  -13.2186   -2.1126 H         1 <0>         0.2212
     68 H31         1.4346   -1.7841    1.2227 H         1 <0>         0.4222
@<TRIPOS>BOND
     1    1    2 1
     2    1   38 1
     3    1   39 1
     4    1   40 1
     5    2    3 1
     6    2   13 1
     7    2   68 1
     8    3    4 1
     9    3   41 1
    10    3   42 1
    11    4    9 ar
    12    4    5 ar
    13    5    6 ar
    14    5   43 1
    15    6    7 ar
    16    6   44 1
    17    7    8 ar
    18    7   10 1
    19    8    9 ar
    20    8   45 1
    21    9   46 1
    22   10   11 2
    23   10   12 1
    24   13   18 1
    25   13   14 1
    26   13   47 1
    27   14   15 1
    28   14   48 1
    29   14   49 1
    30   15   16 1
    31   15   50 1
    32   15   51 1
    33   16   17 1
    34   16   19 1
    35   16   52 1
    36   17   18 1
    37   17   53 1
    38   17   54 1
    39   18   55 1
    40   18   56 1
    41   19   20 1
    42   19   57 1
    43   20   25 ar
    44   20   21 ar
    45   21   22 ar
    46   21   58 1
    47   22   23 ar
    48   22   59 1
    49   23   24 ar
    50   23   26 1
    51   24   25 ar
    52   24   60 1
    53   25   61 1
    54   26   27 1
    55   27   32 ar
    56   27   28 ar
    57   28   29 ar
    58   28   62 1
    59   29   30 ar
    60   29   63 1
    61   30   31 ar
    62   30   33 1
    63   31   32 ar
    64   31   64 1
    65   32   65 1
    66   33   37 1
    67   33   34 2
    68   34   35 1
    69   35   36 2
    70   35   66 1
    71   36   37 1
    72   36   67 1
@<TRIPOS>MOLECULE
CHEMBL470754
   72    74     0     0     0
SMALL
USER_CHARGES

@<TRIPOS>ATOM
      1 C1         -0.0157    1.4560    0.0072 C.3       1 <0>         0.0136
      2 N1         -0.0062   -0.0130    0.0008 N.3       1 <0>        -0.5346
      3 C2          0.6965   -0.5401    1.1782 C.3       1 <0>         0.0578
      4 C3         -0.0899   -0.1867    2.4421 C.3       1 <0>        -0.1488
      5 C4          0.6420   -0.7357    3.6684 C.3       1 <0>        -0.0079
      6 N2         -0.1131   -0.3964    4.8819 N.4       1 <0>        -0.3711
      7 C5         -0.1270    1.0619    5.0583 C.3       1 <0>        -0.0634
      8 C6          0.5244   -1.0245    6.0469 C.3       1 <0>        -0.0284
      9 C7         -0.3169   -0.7792    7.2729 C.2       1 <0>         0.4993
     10 O1         -1.3462   -0.1437    7.1849 O.2       1 <0>        -0.5123
     11 N3          0.0745   -1.2659    8.4672 N.am      1 <0>        -0.6409
     12 C8         -0.6550   -0.9569    9.6228 C.ar      1 <0>         0.0753
     13 C9          0.0033   -0.7743   10.8316 C.ar      1 <0>        -0.0873
     14 C10        -0.7162   -0.4693   11.9700 C.ar      1 <0>        -0.1324
     15 C11        -2.0965   -0.3458   11.9063 C.ar      1 <0>         0.1375
     16 C12        -2.7548   -0.5286   10.6990 C.ar      1 <0>        -0.1949
     17 C13        -2.0359   -0.8275    9.5585 C.ar      1 <0>        -0.0687
     18 O2         -2.8044   -0.0459   13.0277 O.3       1 <0>        -0.2995
     19 C14        -4.2223    0.0660   12.8893 C.3       1 <0>         0.0308
     20 C15        -4.8420    0.4055   14.2464 C.3       1 <0>         0.1556
     21 C16        -6.3443    0.4028   14.1274 C.ar      1 <0>        -0.1256
     22 C17        -6.9969    1.4958   13.5888 C.ar      1 <0>        -0.1103
     23 C18        -8.3750    1.4933   13.4797 C.ar      1 <0>        -0.1151
     24 C19        -9.1003    0.3976   13.9088 C.ar      1 <0>        -0.1114
     25 C20        -8.4475   -0.6959   14.4466 C.ar      1 <0>        -0.1157
     26 C21        -7.0692   -0.6951   14.5518 C.ar      1 <0>        -0.1045
     27 O3         -4.3994    1.6992   14.6619 O.3       1 <0>        -0.5420
     28 C22         0.5851   -0.5302   -1.2405 C.3       1 <0>         0.1059
     29 C23        -0.3007   -0.1722   -2.4061 C.ar      1 <0>        -0.1067
     30 C24        -1.3112   -1.0347   -2.7933 C.ar      1 <0>        -0.1151
     31 C25        -2.1254   -0.7139   -3.8593 C.ar      1 <0>        -0.0872
     32 C26        -1.9282    0.4855   -4.5484 C.ar      1 <0>        -0.1224
     33 C27        -0.9062    1.3516   -4.1515 C.ar      1 <0>        -0.0866
     34 C28        -0.1031    1.0200   -3.0803 C.ar      1 <0>        -0.1317
     35 C29        -2.7947    0.8354   -5.6901 C.2       1 <0>         0.5152
     36 O4         -3.6881    0.0750   -6.0353 O.co2     1 <0>        -0.6840
     37 O5         -2.6196    1.8860   -6.2912 O.co2     1 <0>        -0.6843
     38 H1          1.0095    1.8260   -0.0030 H         1 <0>         0.0272
     39 H2         -0.5421    1.8198   -0.8752 H         1 <0>         0.0872
     40 H3         -0.5215    1.8121    0.9047 H         1 <0>         0.0617
     41 H4          0.7828   -1.6235    1.0949 H         1 <0>         0.0835
     42 H5          1.6920   -0.0996    1.2345 H         1 <0>         0.0416
     43 H6         -0.1762    0.8967    2.5253 H         1 <0>         0.0898
     44 H7         -1.0853   -0.6272    2.3857 H         1 <0>         0.0985
     45 H8          0.7283   -1.8191    3.5851 H         1 <0>         0.1339
     46 H9          1.6375   -0.2952    3.7248 H         1 <0>         0.1314
     47 H10        -0.6873    1.3136    5.9587 H         1 <0>         0.1393
     48 H11         0.8959    1.4262    5.1531 H         1 <0>         0.1194
     49 H12        -0.6000    1.5279    4.1938 H         1 <0>         0.1294
     50 H13         0.6150   -2.0973    5.8771 H         1 <0>         0.1623
     51 H14         1.5153   -0.5950    6.1943 H         1 <0>         0.1619
     52 H15         0.8613   -1.8302    8.5267 H         1 <0>         0.4193
     53 H16         1.0778   -0.8711   10.8815 H         1 <0>         0.1371
     54 H17        -0.2043   -0.3272   12.9103 H         1 <0>         0.1426
     55 H18        -3.8295   -0.4330   10.6502 H         1 <0>         0.1347
     56 H19        -2.5481   -0.9650    8.6177 H         1 <0>         0.1410
     57 H20        -4.4564    0.8556   12.1753 H         1 <0>         0.0698
     58 H21        -4.6281   -0.8800   12.5310 H         1 <0>         0.0768
     59 H22        -4.5344   -0.3374   14.9823 H         1 <0>         0.1198
     60 H23        -6.4303    2.3519   13.2535 H         1 <0>         0.1210
     61 H24        -8.8849    2.3476   13.0595 H         1 <0>         0.1270
     62 H25       -10.1770    0.3959   13.8242 H         1 <0>         0.1267
     63 H26        -9.0142   -1.5518   14.7822 H         1 <0>         0.1276
     64 H27        -6.5589   -1.5509   14.9685 H         1 <0>         0.1263
     65 H28        -4.6387    2.4111   14.0529 H         1 <0>         0.3746
     66 H29         1.5712   -0.0888   -1.3846 H         1 <0>         0.0424
     67 H30         0.6782   -1.6142   -1.1745 H         1 <0>         0.0807
     68 H31        -1.4624   -1.9614   -2.2597 H         1 <0>         0.1119
     69 H32        -2.9132   -1.3883   -4.1609 H         1 <0>         0.1270
     70 H33        -0.7481    2.2803   -4.6795 H         1 <0>         0.1267
     71 H34         0.6844    1.6906   -2.7696 H         1 <0>         0.1084
     72 H35        -1.0600   -0.7337    4.7941 H         1 <0>         0.4330
@<TRIPOS>BOND
     1    1    2 1
     2    1   38 1
     3    1   39 1
     4    1   40 1
     5    2    3 1
     6    2   28 1
     7    3    4 1
     8    3   41 1
     9    3   42 1
    10    4    5 1
    11    4   43 1
    12    4   44 1
    13    5    6 1
    14    5   45 1
    15    5   46 1
    16    6    7 1
    17    6    8 1
    18    6   72 1
    19    7   47 1
    20    7   48 1
    21    7   49 1
    22    8    9 1
    23    8   50 1
    24    8   51 1
    25    9   10 2
    26    9   11 am
    27   11   12 1
    28   11   52 1
    29   12   17 ar
    30   12   13 ar
    31   13   14 ar
    32   13   53 1
    33   14   15 ar
    34   14   54 1
    35   15   16 ar
    36   15   18 1
    37   16   17 ar
    38   16   55 1
    39   17   56 1
    40   18   19 1
    41   19   20 1
    42   19   57 1
    43   19   58 1
    44   20   21 1
    45   20   27 1
    46   20   59 1
    47   21   26 ar
    48   21   22 ar
    49   22   23 ar
    50   22   60 1
    51   23   24 ar
    52   23   61 1
    53   24   25 ar
    54   24   62 1
    55   25   26 ar
    56   25   63 1
    57   26   64 1
    58   27   65 1
    59   28   29 1
    60   28   66 1
    61   28   67 1
    62   29   34 ar
    63   29   30 ar
    64   30   31 ar
    65   30   68 1
    66   31   32 ar
    67   31   69 1
    68   32   33 ar
    69   32   35 1
    70   33   34 ar
    71   33   70 1
    72   34   71 1
    73   35   36 2
    74   35   37 1
@<TRIPOS>MOLECULE
CHEMBL470754__1
   72    74     0     0     0
SMALL
USER_CHARGES

@<TRIPOS>ATOM
      1 C1         -0.0161    1.4589    0.0108 C.3       1 <0>        -0.0557
      2 N1          0.0084   -0.0098   -0.0067 N.4       1 <0>        -0.3838
      3 C2         -1.3682   -0.5226    0.0036 C.3       1 <0>        -0.0072
      4 C3         -2.0743   -0.1141   -1.2907 C.3       1 <0>        -0.1487
      5 C4         -3.5080   -0.6482   -1.2799 C.3       1 <0>         0.0590
      6 N2         -4.1861   -0.2559   -2.5227 N.3       1 <0>        -0.5234
      7 C5         -4.3566    1.2015   -2.5919 C.3       1 <0>         0.0110
      8 C6         -5.4769   -0.9440   -2.6579 C.3       1 <0>         0.0373
      9 C7         -6.0269   -0.7127   -4.0417 C.2       1 <0>         0.5122
     10 O1         -5.4047   -0.0408   -4.8371 O.2       1 <0>        -0.5023
     11 N3         -7.2101   -1.2525   -4.3956 N.am      1 <0>        -0.6711
     12 C8         -7.7678   -0.9589   -5.6469 C.ar      1 <0>         0.0996
     13 C9         -9.1444   -0.8394   -5.7829 C.ar      1 <0>        -0.1007
     14 C10        -9.6934   -0.5495   -7.0164 C.ar      1 <0>        -0.1322
     15 C11        -8.8700   -0.3782   -8.1195 C.ar      1 <0>         0.1214
     16 C12        -7.4945   -0.4979   -7.9844 C.ar      1 <0>        -0.1924
     17 C13        -6.9438   -0.7817   -6.7502 C.ar      1 <0>        -0.0759
     18 O2         -9.4112   -0.0933   -9.3338 O.3       1 <0>        -0.3032
     19 C14        -8.5044    0.0703  -10.4261 C.3       1 <0>         0.0323
     20 C15        -9.2917    0.3838  -11.7000 C.3       1 <0>         0.1551
     21 C16        -8.3480    0.4350  -12.8739 C.ar      1 <0>        -0.1231
     22 C17        -7.5873    1.5667  -13.1004 C.ar      1 <0>        -0.1100
     23 C18        -6.7218    1.6137  -14.1771 C.ar      1 <0>        -0.1155
     24 C19        -6.6165    0.5286  -15.0272 C.ar      1 <0>        -0.1131
     25 C20        -7.3766   -0.6035  -14.8001 C.ar      1 <0>        -0.1164
     26 C21        -8.2390   -0.6520  -13.7209 C.ar      1 <0>        -0.1047
     27 O3         -9.9441    1.6472  -11.5579 O.3       1 <0>        -0.5426
     28 C22         0.7231   -0.5018    1.1786 C.3       1 <0>         0.0530
     29 C23         2.1675   -0.0782    1.1061 C.ar      1 <0>        -0.1831
     30 C24         3.0948   -0.8965    0.4851 C.ar      1 <0>        -0.1087
     31 C25         4.4184   -0.5154    0.4153 C.ar      1 <0>        -0.0846
     32 C26         4.8222    0.7003    0.9731 C.ar      1 <0>        -0.0892
     33 C27         3.8804    1.5215    1.5981 C.ar      1 <0>        -0.0851
     34 C28         2.5592    1.1299    1.6558 C.ar      1 <0>        -0.1119
     35 C29         6.2365    1.1146    0.9029 C.2       1 <0>         0.5089
     36 O4          7.0585    0.3933    0.3555 O.co2     1 <0>        -0.6720
     37 O5          6.5868    2.1793    1.3921 O.co2     1 <0>        -0.6723
     38 H1          1.0053    1.8394    0.0031 H         1 <0>         0.1298
     39 H2         -0.5464    1.8240   -0.8687 H         1 <0>         0.1199
     40 H3         -0.5253    1.8031    0.9110 H         1 <0>         0.1193
     41 H4         -1.3503   -1.6098    0.0802 H         1 <0>         0.1298
     42 H5         -1.9043   -0.1070    0.8568 H         1 <0>         0.1269
     43 H6         -2.0922    0.9731   -1.3673 H         1 <0>         0.0892
     44 H7         -1.5382   -0.5297   -2.1439 H         1 <0>         0.0976
     45 H8         -3.4902   -1.7353   -1.2033 H         1 <0>         0.0864
     46 H9         -4.0442   -0.2326   -0.4268 H         1 <0>         0.0466
     47 H10        -3.3795    1.6836   -2.5597 H         1 <0>         0.0707
     48 H11        -4.8610    1.4645   -3.5217 H         1 <0>         0.0925
     49 H12        -4.9557    1.5378   -1.7458 H         1 <0>         0.0269
     50 H13        -5.3375   -2.0129   -2.4962 H         1 <0>         0.1103
     51 H14        -6.1762   -0.5529   -1.9189 H         1 <0>         0.0720
     52 H15        -7.6755   -1.8443   -3.7839 H         1 <0>         0.4106
     53 H16        -9.7857   -0.9734   -4.9243 H         1 <0>         0.1332
     54 H17       -10.7642   -0.4566   -7.1223 H         1 <0>         0.1373
     55 H18        -6.8540   -0.3651   -8.8438 H         1 <0>         0.1302
     56 H19        -5.8727   -0.8700   -6.6442 H         1 <0>         0.1418
     57 H20        -7.8202    0.8910  -10.2105 H         1 <0>         0.0679
     58 H21        -7.9361   -0.8490  -10.5672 H         1 <0>         0.0746
     59 H22       -10.0374   -0.3935  -11.8668 H         1 <0>         0.1190
     60 H23        -7.6695    2.4144  -12.4363 H         1 <0>         0.1213
     61 H24        -6.1280    2.4982  -14.3545 H         1 <0>         0.1263
     62 H25        -5.9408    0.5656  -15.8688 H         1 <0>         0.1257
     63 H26        -7.2946   -1.4511  -15.4644 H         1 <0>         0.1268
     64 H27        -8.8300   -1.5379  -13.5414 H         1 <0>         0.1263
     65 H28        -9.3401    2.3870  -11.4064 H         1 <0>         0.3743
     66 H29         0.2670   -0.0854    2.0768 H         1 <0>         0.1293
     67 H30         0.6649   -1.5897    1.2125 H         1 <0>         0.1307
     68 H31         2.7812   -1.8359    0.0543 H         1 <0>         0.1221
     69 H32         5.1411   -1.1554   -0.0691 H         1 <0>         0.1386
     70 H33         4.1855    2.4626    2.0314 H         1 <0>         0.1384
     71 H34         1.8293    1.7657    2.1347 H         1 <0>         0.1216
     72 H35         0.4797   -0.3284   -0.8400 H         1 <0>         0.4253
@<TRIPOS>BOND
     1    1    2 1
     2    1   38 1
     3    1   39 1
     4    1   40 1
     5    2    3 1
     6    2   28 1
     7    2   72 1
     8    3    4 1
     9    3   41 1
    10    3   42 1
    11    4    5 1
    12    4   43 1
    13    4   44 1
    14    5    6 1
    15    5   45 1
    16    5   46 1
    17    6    7 1
    18    6    8 1
    19    7   47 1
    20    7   48 1
    21    7   49 1
    22    8    9 1
    23    8   50 1
    24    8   51 1
    25    9   10 2
    26    9   11 am
    27   11   12 1
    28   11   52 1
    29   12   17 ar
    30   12   13 ar
    31   13   14 ar
    32   13   53 1
    33   14   15 ar
    34   14   54 1
    35   15   16 ar
    36   15   18 1
    37   16   17 ar
    38   16   55 1
    39   17   56 1
    40   18   19 1
    41   19   20 1
    42   19   57 1
    43   19   58 1
    44   20   21 1
    45   20   27 1
    46   20   59 1
    47   21   26 ar
    48   21   22 ar
    49   22   23 ar
    50   22   60 1
    51   23   24 ar
    52   23   61 1
    53   24   25 ar
    54   24   62 1
    55   25   26 ar
    56   25   63 1
    57   26   64 1
    58   27   65 1
    59   28   29 1
    60   28   66 1
    61   28   67 1
    62   29   34 ar
    63   29   30 ar
    64   30   31 ar
    65   30   68 1
    66   31   32 ar
    67   31   69 1
    68   32   33 ar
    69   32   35 1
    70   33   34 ar
    71   33   70 1
    72   34   71 1
    73   35   36 2
    74   35   37 1
@<TRIPOS>MOLECULE
CHEMBL470754__2
   72    74     0     0     0
SMALL
USER_CHARGES

@<TRIPOS>ATOM
      1 C1         -0.0157    1.4560    0.0072 C.3       1 <0>         0.0136
      2 N1         -0.0062   -0.0130    0.0008 N.3       1 <0>        -0.5346
      3 C2          0.6965   -0.5401    1.1782 C.3       1 <0>         0.0578
      4 C3         -0.0899   -0.1867    2.4421 C.3       1 <0>        -0.1488
      5 C4          0.6420   -0.7357    3.6684 C.3       1 <0>        -0.0079
      6 N2         -0.1131   -0.3964    4.8819 N.4       1 <0>        -0.3711
      7 C5         -0.1270    1.0619    5.0583 C.3       1 <0>        -0.0634
      8 C6          0.5244   -1.0245    6.0469 C.3       1 <0>        -0.0284
      9 C7         -0.3169   -0.7792    7.2729 C.2       1 <0>         0.4993
     10 O1         -1.3462   -0.1437    7.1849 O.2       1 <0>        -0.5123
     11 N3          0.0745   -1.2659    8.4672 N.am      1 <0>        -0.6409
     12 C8         -0.6550   -0.9569    9.6228 C.ar      1 <0>         0.0753
     13 C9          0.0033   -0.7743   10.8316 C.ar      1 <0>        -0.0873
     14 C10        -0.7162   -0.4693   11.9700 C.ar      1 <0>        -0.1324
     15 C11        -2.0965   -0.3458   11.9063 C.ar      1 <0>         0.1375
     16 C12        -2.7548   -0.5286   10.6990 C.ar      1 <0>        -0.1949
     17 C13        -2.0359   -0.8275    9.5585 C.ar      1 <0>        -0.0687
     18 O2         -2.8044   -0.0459   13.0277 O.3       1 <0>        -0.2995
     19 C14        -4.2223    0.0660   12.8893 C.3       1 <0>         0.0310
     20 C15        -4.8420    0.4055   14.2464 C.3       1 <0>         0.1556
     21 C16        -6.3204    0.6443   14.0780 C.ar      1 <0>        -0.1258
     22 C17        -7.1995   -0.4224   14.0982 C.ar      1 <0>        -0.1095
     23 C18        -8.5556   -0.2034   13.9437 C.ar      1 <0>        -0.1150
     24 C19        -9.0326    1.0823   13.7694 C.ar      1 <0>        -0.1117
     25 C20        -8.1536    2.1490   13.7500 C.ar      1 <0>        -0.1157
     26 C21        -6.7979    1.9304   13.9088 C.ar      1 <0>        -0.1057
     27 O3         -4.6350   -0.6820   15.1500 O.3       1 <0>        -0.5421
     28 C22         0.5851   -0.5302   -1.2405 C.3       1 <0>         0.1059
     29 C23        -0.3007   -0.1722   -2.4061 C.ar      1 <0>        -0.1067
     30 C24        -1.3112   -1.0347   -2.7933 C.ar      1 <0>        -0.1151
     31 C25        -2.1254   -0.7139   -3.8593 C.ar      1 <0>        -0.0872
     32 C26        -1.9282    0.4855   -4.5484 C.ar      1 <0>        -0.1223
     33 C27        -0.9062    1.3516   -4.1515 C.ar      1 <0>        -0.0865
     34 C28        -0.1031    1.0200   -3.0803 C.ar      1 <0>        -0.1318
     35 C29        -2.7947    0.8354   -5.6901 C.2       1 <0>         0.5152
     36 O4         -3.6881    0.0750   -6.0353 O.co2     1 <0>        -0.6839
     37 O5         -2.6196    1.8860   -6.2912 O.co2     1 <0>        -0.6842
     38 H1          1.0095    1.8260   -0.0030 H         1 <0>         0.0272
     39 H2         -0.5421    1.8198   -0.8752 H         1 <0>         0.0872
     40 H3         -0.5215    1.8121    0.9047 H         1 <0>         0.0617
     41 H4          0.7828   -1.6235    1.0949 H         1 <0>         0.0835
     42 H5          1.6920   -0.0996    1.2345 H         1 <0>         0.0416
     43 H6         -0.1762    0.8967    2.5253 H         1 <0>         0.0898
     44 H7         -1.0853   -0.6272    2.3857 H         1 <0>         0.0985
     45 H8          0.7283   -1.8191    3.5851 H         1 <0>         0.1340
     46 H9          1.6375   -0.2952    3.7248 H         1 <0>         0.1314
     47 H10        -0.6873    1.3136    5.9587 H         1 <0>         0.1394
     48 H11         0.8959    1.4262    5.1531 H         1 <0>         0.1194
     49 H12        -0.6000    1.5279    4.1938 H         1 <0>         0.1294
     50 H13         0.6150   -2.0973    5.8771 H         1 <0>         0.1623
     51 H14         1.5153   -0.5950    6.1943 H         1 <0>         0.1619
     52 H15         0.8613   -1.8302    8.5267 H         1 <0>         0.4193
     53 H16         1.0778   -0.8711   10.8815 H         1 <0>         0.1371
     54 H17        -0.2043   -0.3272   12.9103 H         1 <0>         0.1426
     55 H18        -3.8295   -0.4330   10.6502 H         1 <0>         0.1347
     56 H19        -2.5481   -0.9650    8.6177 H         1 <0>         0.1410
     57 H20        -4.4564    0.8556   12.1753 H         1 <0>         0.0766
     58 H21        -4.6281   -0.8800   12.5310 H         1 <0>         0.0700
     59 H22        -4.3720    1.3042   14.6458 H         1 <0>         0.1200
     60 H23        -6.8267   -1.4268   14.2344 H         1 <0>         0.1217
     61 H24        -9.2423   -1.0368   13.9588 H         1 <0>         0.1271
     62 H25       -10.0921    1.2533   13.6479 H         1 <0>         0.1266
     63 H26        -8.5263    3.1534   13.6134 H         1 <0>         0.1275
     64 H27        -6.1116    2.7642   13.8974 H         1 <0>         0.1260
     65 H28        -5.0273   -1.5162   14.8579 H         1 <0>         0.3747
     66 H29         1.5712   -0.0888   -1.3846 H         1 <0>         0.0424
     67 H30         0.6782   -1.6142   -1.1745 H         1 <0>         0.0807
     68 H31        -1.4624   -1.9614   -2.2597 H         1 <0>         0.1119
     69 H32        -2.9132   -1.3883   -4.1609 H         1 <0>         0.1270
     70 H33        -0.7481    2.2803   -4.6795 H         1 <0>         0.1267
     71 H34         0.6844    1.6906   -2.7696 H         1 <0>         0.1084
     72 H35        -1.0600   -0.7337    4.7941 H         1 <0>         0.4330
@<TRIPOS>BOND
     1    1    2 1
     2    1   38 1
     3    1   39 1
     4    1   40 1
     5    2    3 1
     6    2   28 1
     7    3    4 1
     8    3   41 1
     9    3   42 1
    10    4    5 1
    11    4   43 1
    12    4   44 1
    13    5    6 1
    14    5   45 1
    15    5   46 1
    16    6    7 1
    17    6    8 1
    18    6   72 1
    19    7   47 1
    20    7   48 1
    21    7   49 1
    22    8    9 1
    23    8   50 1
    24    8   51 1
    25    9   10 2
    26    9   11 am
    27   11   12 1
    28   11   52 1
    29   12   17 ar
    30   12   13 ar
    31   13   14 ar
    32   13   53 1
    33   14   15 ar
    34   14   54 1
    35   15   16 ar
    36   15   18 1
    37   16   17 ar
    38   16   55 1
    39   17   56 1
    40   18   19 1
    41   19   20 1
    42   19   57 1
    43   19   58 1
    44   20   21 1
    45   20   27 1
    46   20   59 1
    47   21   26 ar
    48   21   22 ar
    49   22   23 ar
    50   22   60 1
    51   23   24 ar
    52   23   61 1
    53   24   25 ar
    54   24   62 1
    55   25   26 ar
    56   25   63 1
    57   26   64 1
    58   27   65 1
    59   28   29 1
    60   28   66 1
    61   28   67 1
    62   29   34 ar
    63   29   30 ar
    64   30   31 ar
    65   30   68 1
    66   31   32 ar
    67   31   69 1
    68   32   33 ar
    69   32   35 1
    70   33   34 ar
    71   33   70 1
    72   34   71 1
    73   35   36 2
    74   35   37 1
@<TRIPOS>MOLECULE
CHEMBL470754__3
   72    74     0     0     0
SMALL
USER_CHARGES

@<TRIPOS>ATOM
      1 C1         -0.0161    1.4589    0.0108 C.3       1 <0>        -0.0557
      2 N1          0.0084   -0.0098   -0.0067 N.4       1 <0>        -0.3838
      3 C2         -1.3682   -0.5226    0.0036 C.3       1 <0>        -0.0072
      4 C3         -2.0743   -0.1141   -1.2907 C.3       1 <0>        -0.1487
      5 C4         -3.5080   -0.6482   -1.2799 C.3       1 <0>         0.0590
      6 N2         -4.1861   -0.2559   -2.5227 N.3       1 <0>        -0.5234
      7 C5         -4.3566    1.2015   -2.5919 C.3       1 <0>         0.0110
      8 C6         -5.4769   -0.9440   -2.6579 C.3       1 <0>         0.0373
      9 C7         -6.0269   -0.7127   -4.0417 C.2       1 <0>         0.5122
     10 O1         -5.4047   -0.0408   -4.8371 O.2       1 <0>        -0.5023
     11 N3         -7.2101   -1.2525   -4.3956 N.am      1 <0>        -0.6711
     12 C8         -7.7678   -0.9589   -5.6469 C.ar      1 <0>         0.0997
     13 C9         -9.1444   -0.8394   -5.7829 C.ar      1 <0>        -0.1007
     14 C10        -9.6934   -0.5495   -7.0164 C.ar      1 <0>        -0.1322
     15 C11        -8.8700   -0.3782   -8.1195 C.ar      1 <0>         0.1214
     16 C12        -7.4945   -0.4979   -7.9844 C.ar      1 <0>        -0.1924
     17 C13        -6.9438   -0.7817   -6.7502 C.ar      1 <0>        -0.0759
     18 O2         -9.4112   -0.0933   -9.3338 O.3       1 <0>        -0.3032
     19 C14        -8.5044    0.0703  -10.4261 C.3       1 <0>         0.0325
     20 C15        -9.2917    0.3838  -11.7000 C.3       1 <0>         0.1552
     21 C16        -8.3319    0.6771  -12.8242 C.ar      1 <0>        -0.1233
     22 C17        -7.8041   -0.3599  -13.5706 C.ar      1 <0>        -0.1094
     23 C18        -6.9238   -0.0909  -14.6019 C.ar      1 <0>        -0.1155
     24 C19        -6.5716    1.2151  -14.8870 C.ar      1 <0>        -0.1134
     25 C20        -7.1001    2.2521  -14.1412 C.ar      1 <0>        -0.1162
     26 C21        -7.9837    1.9834  -13.1127 C.ar      1 <0>        -0.1057
     27 O3        -10.1030   -0.7401  -12.0473 O.3       1 <0>        -0.5427
     28 C22         0.7231   -0.5018    1.1786 C.3       1 <0>         0.0530
     29 C23         2.1675   -0.0782    1.1061 C.ar      1 <0>        -0.1831
     30 C24         3.0948   -0.8965    0.4851 C.ar      1 <0>        -0.1087
     31 C25         4.4184   -0.5154    0.4153 C.ar      1 <0>        -0.0847
     32 C26         4.8222    0.7003    0.9731 C.ar      1 <0>        -0.0892
     33 C27         3.8804    1.5215    1.5981 C.ar      1 <0>        -0.0851
     34 C28         2.5592    1.1299    1.6558 C.ar      1 <0>        -0.1119
     35 C29         6.2365    1.1146    0.9029 C.2       1 <0>         0.5089
     36 O4          7.0585    0.3933    0.3555 O.co2     1 <0>        -0.6720
     37 O5          6.5868    2.1793    1.3921 O.co2     1 <0>        -0.6723
     38 H1          1.0053    1.8394    0.0031 H         1 <0>         0.1298
     39 H2         -0.5464    1.8240   -0.8687 H         1 <0>         0.1200
     40 H3         -0.5253    1.8031    0.9110 H         1 <0>         0.1193
     41 H4         -1.3503   -1.6098    0.0802 H         1 <0>         0.1298
     42 H5         -1.9043   -0.1070    0.8568 H         1 <0>         0.1269
     43 H6         -2.0922    0.9731   -1.3673 H         1 <0>         0.0892
     44 H7         -1.5382   -0.5297   -2.1439 H         1 <0>         0.0976
     45 H8         -3.4902   -1.7353   -1.2033 H         1 <0>         0.0865
     46 H9         -4.0442   -0.2326   -0.4268 H         1 <0>         0.0466
     47 H10        -3.3795    1.6836   -2.5597 H         1 <0>         0.0707
     48 H11        -4.8610    1.4645   -3.5217 H         1 <0>         0.0925
     49 H12        -4.9557    1.5378   -1.7458 H         1 <0>         0.0268
     50 H13        -5.3375   -2.0129   -2.4962 H         1 <0>         0.1103
     51 H14        -6.1762   -0.5529   -1.9189 H         1 <0>         0.0720
     52 H15        -7.6755   -1.8443   -3.7839 H         1 <0>         0.4106
     53 H16        -9.7857   -0.9734   -4.9243 H         1 <0>         0.1332
     54 H17       -10.7642   -0.4566   -7.1223 H         1 <0>         0.1373
     55 H18        -6.8540   -0.3651   -8.8438 H         1 <0>         0.1302
     56 H19        -5.8727   -0.8700   -6.6442 H         1 <0>         0.1418
     57 H20        -7.8202    0.8910  -10.2105 H         1 <0>         0.0746
     58 H21        -7.9361   -0.8490  -10.5672 H         1 <0>         0.0680
     59 H22        -9.9278    1.2523  -11.5295 H         1 <0>         0.1194
     60 H23        -8.0793   -1.3802  -13.3478 H         1 <0>         0.1218
     61 H24        -6.5108   -0.9011  -15.1845 H         1 <0>         0.1263
     62 H25        -5.8832    1.4252  -15.6923 H         1 <0>         0.1257
     63 H26        -6.8246    3.2724  -14.3638 H         1 <0>         0.1268
     64 H27        -8.3995    2.7938  -12.5325 H         1 <0>         0.1260
     65 H28        -9.6022   -1.5504  -12.2135 H         1 <0>         0.3742
     66 H29         0.2670   -0.0854    2.0768 H         1 <0>         0.1293
     67 H30         0.6649   -1.5897    1.2125 H         1 <0>         0.1307
     68 H31         2.7812   -1.8359    0.0543 H         1 <0>         0.1221
     69 H32         5.1411   -1.1554   -0.0691 H         1 <0>         0.1386
     70 H33         4.1855    2.4626    2.0314 H         1 <0>         0.1384
     71 H34         1.8293    1.7657    2.1347 H         1 <0>         0.1216
     72 H35         0.4797   -0.3284   -0.8400 H         1 <0>         0.4253
@<TRIPOS>BOND
     1    1    2 1
     2    1   38 1
     3    1   39 1
     4    1   40 1
     5    2    3 1
     6    2   28 1
     7    2   72 1
     8    3    4 1
     9    3   41 1
    10    3   42 1
    11    4    5 1
    12    4   43 1
    13    4   44 1
    14    5    6 1
    15    5   45 1
    16    5   46 1
    17    6    7 1
    18    6    8 1
    19    7   47 1
    20    7   48 1
    21    7   49 1
    22    8    9 1
    23    8   50 1
    24    8   51 1
    25    9   10 2
    26    9   11 am
    27   11   12 1
    28   11   52 1
    29   12   17 ar
    30   12   13 ar
    31   13   14 ar
    32   13   53 1
    33   14   15 ar
    34   14   54 1
    35   15   16 ar
    36   15   18 1
    37   16   17 ar
    38   16   55 1
    39   17   56 1
    40   18   19 1
    41   19   20 1
    42   19   57 1
    43   19   58 1
    44   20   21 1
    45   20   27 1
    46   20   59 1
    47   21   26 ar
    48   21   22 ar
    49   22   23 ar
    50   22   60 1
    51   23   24 ar
    52   23   61 1
    53   24   25 ar
    54   24   62 1
    55   25   26 ar
    56   25   63 1
    57   26   64 1
    58   27   65 1
    59   28   29 1
    60   28   66 1
    61   28   67 1
    62   29   34 ar
    63   29   30 ar
    64   30   31 ar
    65   30   68 1
    66   31   32 ar
    67   31   69 1
    68   32   33 ar
    69   32   35 1
    70   33   34 ar
    71   33   70 1
    72   34   71 1
    73   35   36 2
    74   35   37 1
@<TRIPOS>MOLECULE
CHEMBL520414
   67    70     0     0     0
SMALL
USER_CHARGES

@<TRIPOS>ATOM
      1 C1          1.9219    1.1971    0.5738 C.3       1 <0>         0.0133
      2 N1          1.2534   -0.0887    0.3331 N.3       1 <0>        -0.5345
      3 C2          1.4594   -1.0082    1.4601 C.3       1 <0>         0.0577
      4 C3          0.7548   -0.4586    2.7020 C.3       1 <0>        -0.1489
      5 C4          0.9693   -1.4162    3.8758 C.3       1 <0>        -0.0080
      6 N2          0.2928   -0.8885    5.0682 N.4       1 <0>        -0.3712
      7 C5          0.9284    0.3722    5.4741 C.3       1 <0>        -0.0637
      8 C6          0.3968   -1.8636    6.1620 C.3       1 <0>        -0.0285
      9 C7         -0.4003   -1.3781    7.3452 C.2       1 <0>         0.5000
     10 O1         -0.9964   -0.3236    7.2834 O.2       1 <0>        -0.5094
     11 N3         -0.4509   -2.1158    8.4721 N.am      1 <0>        -0.6387
     12 C8         -1.0472   -1.5915    9.6263 C.ar      1 <0>         0.0845
     13 C9         -0.6495   -2.0405   10.8787 C.ar      1 <0>        -0.0949
     14 C10        -1.2376   -1.5234   12.0159 C.ar      1 <0>        -0.1726
     15 C11        -2.2257   -0.5554   11.9075 C.ar      1 <0>         0.1262
     16 C12        -2.6234   -0.1063   10.6564 C.ar      1 <0>        -0.1275
     17 C13        -2.0320   -0.6186    9.5186 C.ar      1 <0>        -0.0882
     18 O2         -2.8046   -0.0470   13.0276 O.3       1 <0>        -0.2543
     19 C14        -2.2635   -0.3744   14.2302 C.ar      1 <0>         0.0753
     20 C15        -1.0976    0.2437   14.6592 C.ar      1 <0>        -0.1316
     21 C16        -0.5496   -0.0911   15.8822 C.ar      1 <0>        -0.1046
     22 C17        -1.1616   -1.0416   16.6785 C.ar      1 <0>        -0.1140
     23 C18        -2.3234   -1.6591   16.2534 C.ar      1 <0>        -0.1038
     24 C19        -2.8790   -1.3235   15.0340 C.ar      1 <0>        -0.1211
     25 C20         1.7083   -0.6907   -0.9273 C.3       1 <0>         0.1058
     26 C21         1.2624    0.1671   -2.0834 C.ar      1 <0>        -0.1148
     27 C22         0.0347   -0.0623   -2.6781 C.ar      1 <0>        -0.0967
     28 C23        -0.3794    0.7200   -3.7367 C.ar      1 <0>        -0.1066
     29 C24         0.4428    1.7438   -4.2068 C.ar      1 <0>         0.0610
     30 C25         1.6795    1.9702   -3.6030 C.ar      1 <0>        -0.1060
     31 C26         2.0801    1.1845   -2.5418 C.ar      1 <0>        -0.1136
     32 C27         0.0048    2.5865   -5.3424 C.2       1 <0>         0.0664
     33 N4         -1.1460    2.4904   -6.0103 N.2       1 <0>        -0.3662
     34 N5         -1.1421    3.4022   -6.9217 N.2       1 <0>        -0.1871
     35 N6         -0.0408    4.0648   -6.8548 N.2       1 <0>        -0.1872
     36 N7          0.6807    3.5948   -5.8953 N.2       1 <0>        -0.3666
     37 H1          2.9920    1.0323    0.6994 H         1 <0>         0.0275
     38 H2          1.7534    1.8588   -0.2758 H         1 <0>         0.0869
     39 H3          1.5162    1.6541    1.4764 H         1 <0>         0.0620
     40 H4          1.0469   -1.9860    1.2113 H         1 <0>         0.0838
     41 H5          2.5265   -1.1042    1.6604 H         1 <0>         0.0418
     42 H6          1.1672    0.5192    2.9508 H         1 <0>         0.0899
     43 H7         -0.3123   -0.3625    2.5018 H         1 <0>         0.0989
     44 H8          0.5569   -2.3940    3.6270 H         1 <0>         0.1340
     45 H9          2.0364   -1.5123    4.0761 H         1 <0>         0.1312
     46 H10         1.9790    0.1925    5.7021 H         1 <0>         0.1192
     47 H11         0.8513    1.0957    4.6625 H         1 <0>         0.1297
     48 H12         0.4264    0.7637    6.3589 H         1 <0>         0.1397
     49 H13         0.0052   -2.8251    5.8300 H         1 <0>         0.1625
     50 H14         1.4420   -1.9768    6.4498 H         1 <0>         0.1621
     51 H15        -0.0744   -3.0097    8.4839 H         1 <0>         0.4200
     52 H16         0.1193   -2.7942   10.9632 H         1 <0>         0.1332
     53 H17        -0.9286   -1.8728   12.9900 H         1 <0>         0.1376
     54 H18        -3.3925    0.6472   10.5726 H         1 <0>         0.1418
     55 H19        -2.3385   -0.2658    8.5450 H         1 <0>         0.1621
     56 H20        -0.6189    0.9856   14.0374 H         1 <0>         0.1300
     57 H21         0.3578    0.3897   16.2166 H         1 <0>         0.1324
     58 H22        -0.7311   -1.3024   17.6340 H         1 <0>         0.1313
     59 H23        -2.7992   -2.4014   16.8770 H         1 <0>         0.1341
     60 H24        -3.7889   -1.8028   14.7043 H         1 <0>         0.1334
     61 H25         2.7961   -0.7604   -0.9250 H         1 <0>         0.0431
     62 H26         1.2805   -1.6881   -1.0288 H         1 <0>         0.0815
     63 H27        -0.6009   -0.8557   -2.3134 H         1 <0>         0.1162
     64 H28        -1.3379    0.5397   -4.2004 H         1 <0>         0.1291
     65 H29         2.3206    2.7613   -3.9630 H         1 <0>         0.1287
     66 H30         3.0355    1.3617   -2.0706 H         1 <0>         0.1126
     67 H31        -0.6797   -0.7222    4.8572 H         1 <0>         0.4336
@<TRIPOS>BOND
     1    1    2 1
     2    1   37 1
     3    1   38 1
     4    1   39 1
     5    2    3 1
     6    2   25 1
     7    3    4 1
     8    3   40 1
     9    3   41 1
    10    4    5 1
    11    4   42 1
    12    4   43 1
    13    5    6 1
    14    5   44 1
    15    5   45 1
    16    6    7 1
    17    6    8 1
    18    6   67 1
    19    7   46 1
    20    7   47 1
    21    7   48 1
    22    8    9 1
    23    8   49 1
    24    8   50 1
    25    9   10 2
    26    9   11 am
    27   11   12 1
    28   11   51 1
    29   12   17 ar
    30   12   13 ar
    31   13   14 ar
    32   13   52 1
    33   14   15 ar
    34   14   53 1
    35   15   16 ar
    36   15   18 1
    37   16   17 ar
    38   16   54 1
    39   17   55 1
    40   18   19 1
    41   19   24 ar
    42   19   20 ar
    43   20   21 ar
    44   20   56 1
    45   21   22 ar
    46   21   57 1
    47   22   23 ar
    48   22   58 1
    49   23   24 ar
    50   23   59 1
    51   24   60 1
    52   25   26 1
    53   25   61 1
    54   25   62 1
    55   26   31 ar
    56   26   27 ar
    57   27   28 ar
    58   27   63 1
    59   28   29 ar
    60   28   64 1
    61   29   30 ar
    62   29   32 1
    63   30   31 ar
    64   30   65 1
    65   31   66 1
    66   32   36 2
    67   32   33 1
    68   33   34 1
    69   34   35 2
    70   35   36 1
@<TRIPOS>MOLECULE
CHEMBL520414__1
   67    70     0     0     0
SMALL
USER_CHARGES

@<TRIPOS>ATOM
      1 C1          1.7913    1.4096    0.6305 C.3       1 <0>        -0.0559
      2 N1          1.1357    0.1265    0.3447 N.4       1 <0>        -0.3841
      3 C2          1.3784   -0.8053    1.4541 C.3       1 <0>        -0.0073
      4 C3          0.7010   -0.2779    2.7205 C.3       1 <0>        -0.1489
      5 C4          0.9539   -1.2484    3.8760 C.3       1 <0>         0.0589
      6 N2          0.3035   -0.7421    5.0920 N.3       1 <0>        -0.5231
      7 C5          0.9297    0.5081    5.5423 C.3       1 <0>         0.0106
      8 C6          0.3202   -1.7529    6.1578 C.3       1 <0>         0.0370
      9 C7         -0.5604   -1.2997    7.2937 C.2       1 <0>         0.5132
     10 O1         -1.1444   -0.2390    7.2224 O.2       1 <0>        -0.4987
     11 N3         -0.6990   -2.0730    8.3888 N.am      1 <0>        -0.6682
     12 C8         -1.3769   -1.5817    9.5121 C.ar      1 <0>         0.1091
     13 C9         -1.0764   -2.0741   10.7751 C.ar      1 <0>        -0.1095
     14 C10        -1.7449   -1.5896   11.8818 C.ar      1 <0>        -0.1715
     15 C11        -2.7168   -0.6108   11.7320 C.ar      1 <0>         0.1093
     16 C12        -3.0175   -0.1183   10.4702 C.ar      1 <0>        -0.1250
     17 C13        -2.3456   -0.5981    9.3634 C.ar      1 <0>        -0.0963
     18 O2         -3.3750   -0.1343   12.8220 O.3       1 <0>        -0.2586
     19 C14        -2.9270   -0.5049   14.0501 C.ar      1 <0>         0.0822
     20 C15        -1.7931    0.0898   14.5849 C.ar      1 <0>        -0.1327
     21 C16        -1.3398   -0.2887   15.8336 C.ar      1 <0>        -0.1051
     22 C17        -2.0147   -1.2596   16.5504 C.ar      1 <0>        -0.1178
     23 C18        -3.1449   -1.8538   16.0198 C.ar      1 <0>        -0.1048
     24 C19        -3.6060   -1.4745   14.7742 C.ar      1 <0>        -0.1232
     25 C20         1.6827   -0.4370   -0.8968 C.3       1 <0>         0.0537
     26 C21         1.3269    0.4592   -2.0548 C.ar      1 <0>        -0.1949
     27 C22         0.1468    0.2545   -2.7471 C.ar      1 <0>        -0.0891
     28 C23        -0.1847    1.0720   -3.8081 C.ar      1 <0>        -0.1068
     29 C24         0.6727    2.1065   -4.1821 C.ar      1 <0>         0.0998
     30 C25         1.8609    2.3079   -3.4802 C.ar      1 <0>        -0.1073
     31 C26         2.1789    1.4869   -2.4176 C.ar      1 <0>        -0.0925
     32 C27         0.3231    2.9870   -5.3197 C.2       1 <0>         0.0470
     33 N4         -0.7743    2.9175   -6.0748 N.2       1 <0>        -0.3564
     34 N5         -0.6999    3.8579   -6.9536 N.2       1 <0>        -0.1762
     35 N6          0.3946    4.5130   -6.7829 N.2       1 <0>        -0.1762
     36 N7          1.0409    4.0093   -5.7876 N.2       1 <0>        -0.3569
     37 H1          2.8638    1.2521    0.7447 H         1 <0>         0.1194
     38 H2          1.6112    2.1010   -0.1926 H         1 <0>         0.1297
     39 H3          1.3854    1.8278    1.5517 H         1 <0>         0.1200
     40 H4          0.9684   -1.7836    1.2032 H         1 <0>         0.1300
     41 H5          2.4511   -0.8941    1.6259 H         1 <0>         0.1269
     42 H6          1.1111    0.7004    2.9714 H         1 <0>         0.0893
     43 H7         -0.3717   -0.1891    2.5487 H         1 <0>         0.0980
     44 H8          0.5438   -2.2267    3.6251 H         1 <0>         0.0866
     45 H9          2.0266   -1.3372    4.0478 H         1 <0>         0.0466
     46 H10         0.8415    1.2613    4.7593 H         1 <0>         0.0711
     47 H11         0.4291    0.8610    6.4439 H         1 <0>         0.0928
     48 H12         1.9832    0.3298    5.7578 H         1 <0>         0.0268
     49 H13        -0.0507   -2.7001    5.7661 H         1 <0>         0.1107
     50 H14         1.3403   -1.8835    6.5187 H         1 <0>         0.0725
     51 H15        -0.3293   -2.9698    8.3992 H         1 <0>         0.4114
     52 H16        -0.3201   -2.8363   10.8918 H         1 <0>         0.1291
     53 H17        -1.5114   -1.9728   12.8642 H         1 <0>         0.1324
     54 H18        -3.7741    0.6436   10.3541 H         1 <0>         0.1373
     55 H19        -2.5766   -0.2115    8.3818 H         1 <0>         0.1639
     56 H20        -1.2652    0.8477   14.0251 H         1 <0>         0.1297
     57 H21        -0.4572    0.1738   16.2503 H         1 <0>         0.1308
     58 H22        -1.6582   -1.5547   17.5262 H         1 <0>         0.1295
     59 H23        -3.6700   -2.6122   16.5816 H         1 <0>         0.1323
     60 H24        -4.4914   -1.9357   14.3621 H         1 <0>         0.1325
     61 H25         2.7671   -0.5118   -0.8150 H         1 <0>         0.1296
     62 H26         1.2616   -1.4287   -1.0621 H         1 <0>         0.1311
     63 H27        -0.5161   -0.5472   -2.4568 H         1 <0>         0.1259
     64 H28        -1.1061    0.9110   -4.3481 H         1 <0>         0.1401
     65 H29         2.5290    3.1071   -3.7653 H         1 <0>         0.1399
     66 H30         3.0966    1.6447   -1.8705 H         1 <0>         0.1253
     67 H31         0.1429    0.2723    0.2390 H         1 <0>         0.4253
@<TRIPOS>BOND
     1    1    2 1
     2    1   37 1
     3    1   38 1
     4    1   39 1
     5    2    3 1
     6    2   25 1
     7    2   67 1
     8    3    4 1
     9    3   40 1
    10    3   41 1
    11    4    5 1
    12    4   42 1
    13    4   43 1
    14    5    6 1
    15    5   44 1
    16    5   45 1
    17    6    7 1
    18    6    8 1
    19    7   46 1
    20    7   47 1
    21    7   48 1
    22    8    9 1
    23    8   49 1
    24    8   50 1
    25    9   10 2
    26    9   11 am
    27   11   12 1
    28   11   51 1
    29   12   17 ar
    30   12   13 ar
    31   13   14 ar
    32   13   52 1
    33   14   15 ar
    34   14   53 1
    35   15   16 ar
    36   15   18 1
    37   16   17 ar
    38   16   54 1
    39   17   55 1
    40   18   19 1
    41   19   24 ar
    42   19   20 ar
    43   20   21 ar
    44   20   56 1
    45   21   22 ar
    46   21   57 1
    47   22   23 ar
    48   22   58 1
    49   23   24 ar
    50   23   59 1
    51   24   60 1
    52   25   26 1
    53   25   61 1
    54   25   62 1
    55   26   31 ar
    56   26   27 ar
    57   27   28 ar
    58   27   63 1
    59   28   29 ar
    60   28   64 1
    61   29   30 ar
    62   29   32 1
    63   30   31 ar
    64   30   65 1
    65   31   66 1
    66   32   36 2
    67   32   33 1
    68   33   34 1
    69   34   35 2
    70   35   36 1
@<TRIPOS>MOLECULE
CHEMBL482254
   51    54     0     0     0
SMALL
USER_CHARGES

@<TRIPOS>ATOM
      1 C1          0.3428   -4.9537    4.5180 C.ar      1 <0>        -0.1087
      2 C2          1.5781   -5.0984    5.1309 C.ar      1 <0>        -0.0928
      3 C3          2.7387   -4.8071    4.4433 C.ar      1 <0>        -0.0877
      4 C4          2.6719   -4.3668    3.1312 C.ar      1 <0>         0.0041
      5 C5          1.4242   -4.2191    2.5073 C.ar      1 <0>         0.0418
      6 C6          0.2584   -4.5172    3.2142 C.ar      1 <0>        -0.0612
      7 N1          1.6710   -3.7791    1.2429 N.2       1 <0>        -0.4591
      8 C7          2.9623   -3.6603    1.0849 C.2       1 <0>         0.4162
      9 O1          3.6006   -4.0100    2.2148 O.3       1 <0>        -0.2373
     10 O2          3.5685   -3.2454   -0.0500 O.3       1 <0>        -0.1750
     11 C8          4.9175   -3.0765   -0.0281 C.ar      1 <0>         0.0356
     12 C9          5.4555   -1.8003    0.0516 C.ar      1 <0>        -0.0590
     13 C10         6.8258   -1.6287    0.0737 C.ar      1 <0>        -0.1285
     14 C11         7.6640   -2.7324    0.0164 C.ar      1 <0>         0.1331
     15 C12         7.1261   -4.0085   -0.0637 C.ar      1 <0>        -0.1901
     16 C13         5.7558   -4.1805   -0.0797 C.ar      1 <0>        -0.0679
     17 O3          9.0130   -2.5634    0.0382 O.3       1 <0>        -0.3220
     18 C14         9.8158   -3.7440   -0.0239 C.3       1 <0>         0.0222
     19 C15        11.2956   -3.3569    0.0119 C.3       1 <0>        -0.0003
     20 N2         11.6095   -2.7413    1.3082 N.4       1 <0>        -0.3795
     21 C16        11.4881   -3.7248    2.3599 C.3       1 <0>        -0.0253
     22 C17        10.9138   -3.1012    3.6436 C.3       1 <0>        -0.1442
     23 C18        11.4984   -1.7062    3.9398 C.3       1 <0>        -0.1426
     24 C19        12.9839   -1.6210    3.7054 C.3       1 <0>        -0.1342
     25 C20        13.2444   -1.1678    2.2484 C.3       1 <0>        -0.1573
     26 C21        13.0010   -2.2573    1.3076 C.3       1 <0>        -0.0022
     27 H1         -0.5584   -5.1889    5.0646 H         1 <0>         0.1437
     28 H2          1.6324   -5.4410    6.1537 H         1 <0>         0.1450
     29 H3          3.6973   -4.9218    4.9272 H         1 <0>         0.1349
     30 H4         -0.7060   -4.4057    2.7411 H         1 <0>         0.1425
     31 H5          4.8029   -0.9410    0.0959 H         1 <0>         0.1523
     32 H6          7.2446   -0.6352    0.1354 H         1 <0>         0.1483
     33 H7          7.7788   -4.8677   -0.1091 H         1 <0>         0.1400
     34 H8          5.3369   -5.1744   -0.1368 H         1 <0>         0.1431
     35 H9          9.5870   -4.3842    0.8280 H         1 <0>         0.0892
     36 H10         9.6027   -4.2800   -0.9488 H         1 <0>         0.1140
     37 H11        11.9077   -4.2484   -0.1248 H         1 <0>         0.1525
     38 H12        11.5047   -2.6465   -0.7879 H         1 <0>         0.1449
     39 H13        10.8282   -4.5253    2.0257 H         1 <0>         0.1260
     40 H14        12.4723   -4.1411    2.5747 H         1 <0>         0.1316
     41 H15         9.8322   -3.0147    3.5395 H         1 <0>         0.0879
     42 H16        11.1329   -3.7602    4.4837 H         1 <0>         0.1073
     43 H17        11.0011   -0.9758    3.3016 H         1 <0>         0.0657
     44 H18        11.2935   -1.4547    4.9804 H         1 <0>         0.0919
     45 H19        13.4206   -0.8985    4.3949 H         1 <0>         0.0909
     46 H20        13.4350   -2.5998    3.8684 H         1 <0>         0.0779
     47 H21        12.5835   -0.3347    2.0095 H         1 <0>         0.0877
     48 H22        14.2797   -0.8398    2.1557 H         1 <0>         0.1183
     49 H23        13.6591   -3.0888    1.5598 H         1 <0>         0.1287
     50 H24        13.2494   -1.9125    0.3038 H         1 <0>         0.1276
     51 H25        10.9799   -1.9725    1.4832 H         1 <0>         0.4299
@<TRIPOS>BOND
     1    1    6 ar
     2    1    2 ar
     3    1   27 1
     4    2    3 ar
     5    2   28 1
     6    3    4 ar
     7    3   29 1
     8    4    9 1
     9    4    5 ar
    10    5    6 ar
    11    5    7 1
    12    6   30 1
    13    7    8 2
    14    8    9 1
    15    8   10 1
    16   10   11 1
    17   11   16 ar
    18   11   12 ar
    19   12   13 ar
    20   12   31 1
    21   13   14 ar
    22   13   32 1
    23   14   15 ar
    24   14   17 1
    25   15   16 ar
    26   15   33 1
    27   16   34 1
    28   17   18 1
    29   18   19 1
    30   18   35 1
    31   18   36 1
    32   19   20 1
    33   19   37 1
    34   19   38 1
    35   20   26 1
    36   20   21 1
    37   20   51 1
    38   21   22 1
    39   21   39 1
    40   21   40 1
    41   22   23 1
    42   22   41 1
    43   22   42 1
    44   23   24 1
    45   23   43 1
    46   23   44 1
    47   24   25 1
    48   24   45 1
    49   24   46 1
    50   25   26 1
    51   25   47 1
    52   25   48 1
    53   26   49 1
    54   26   50 1
@<TRIPOS>MOLECULE
CHEMBL470755
   71    74     0     0     0
SMALL
USER_CHARGES

@<TRIPOS>ATOM
      1 C1          1.9205    1.1875    0.5723 C.3       1 <0>         0.0136
      2 N1          1.2508   -0.0978    0.3323 N.3       1 <0>        -0.5345
      3 C2          1.4561   -1.0169    1.4597 C.3       1 <0>         0.0577
      4 C3          0.7524   -0.4661    2.7015 C.3       1 <0>        -0.1488
      5 C4          0.9663   -1.4235    3.8757 C.3       1 <0>        -0.0078
      6 N2          0.2906   -0.8946    5.0681 N.4       1 <0>        -0.3712
      7 C5          0.9274    0.3657    5.4732 C.3       1 <0>        -0.0638
      8 C6          0.3939   -1.8693    6.1622 C.3       1 <0>        -0.0287
      9 C7         -0.4025   -1.3826    7.3454 C.2       1 <0>         0.5006
     10 O1         -0.9975   -0.3275    7.2833 O.2       1 <0>        -0.5090
     11 N3         -0.4534   -2.1197    8.4726 N.am      1 <0>        -0.6393
     12 C8         -1.0491   -1.5944    9.6267 C.ar      1 <0>         0.0871
     13 C9         -0.6519   -2.0434   10.8792 C.ar      1 <0>        -0.0948
     14 C10        -1.2393   -1.5254   12.0163 C.ar      1 <0>        -0.1720
     15 C11        -2.2263   -0.5563   11.9076 C.ar      1 <0>         0.1244
     16 C12        -2.6240   -0.1075   10.6563 C.ar      1 <0>        -0.1247
     17 C13        -2.0329   -0.6204    9.5188 C.ar      1 <0>        -0.0886
     18 O2         -2.8043   -0.0466   13.0276 O.3       1 <0>        -0.2529
     19 C14        -2.2633   -0.3735   14.2295 C.ar      1 <0>         0.0971
     20 C15        -1.0958    0.2473   14.6557 C.ar      1 <0>        -0.1312
     21 C16        -0.5438   -0.0817   15.8747 C.ar      1 <0>        -0.0555
     22 C17        -1.1595   -1.0406   16.6819 C.ar      1 <0>        -0.0118
     23 C18        -2.3329   -1.6624   16.2500 C.ar      1 <0>        -0.0733
     24 C19        -2.8819   -1.3238   15.0323 C.ar      1 <0>        -0.1200
     25 C20        -0.5706   -1.3966   17.9893 C.2       1 <0>         0.2227
     26 N4          0.5208   -0.8804   18.5046 N.2       1 <0>        -0.4666
     27 C21         0.7411   -1.4490   19.7001 C.2       1 <0>        -0.0383
     28 C22        -0.2437   -2.3379   19.9216 C.2       1 <0>        -0.0626
     29 O3         -1.0658   -2.2994   18.8537 O.3       1 <0>        -0.1961
     30 C23         1.7048   -0.7007   -0.9280 C.3       1 <0>         0.1060
     31 C24         1.2594    0.1570   -2.0842 C.ar      1 <0>        -0.1068
     32 C25         0.0308   -0.0722   -2.6784 C.ar      1 <0>        -0.1151
     33 C26        -0.3832    0.7085   -3.7374 C.ar      1 <0>        -0.0872
     34 C27         0.4411    1.7331   -4.2097 C.ar      1 <0>        -0.1223
     35 C28         1.6800    1.9589   -3.6045 C.ar      1 <0>        -0.0866
     36 C29         2.0786    1.1736   -2.5431 C.ar      1 <0>        -0.1318
     37 C30         0.0055    2.5722   -5.3423 C.2       1 <0>         0.5152
     38 O4         -1.0793    2.3717   -5.8701 O.co2     1 <0>        -0.6840
     39 O5          0.7292    3.4682   -5.7534 O.co2     1 <0>        -0.6842
     40 H1          2.9905    1.0218    0.6977 H         1 <0>         0.0272
     41 H2          1.7524    1.8490   -0.2775 H         1 <0>         0.0872
     42 H3          1.5154    1.6453    1.4748 H         1 <0>         0.0619
     43 H4          1.0427   -1.9945    1.2114 H         1 <0>         0.0835
     44 H5          2.5232   -1.1139    1.6597 H         1 <0>         0.0414
     45 H6          1.1658    0.5114    2.9498 H         1 <0>         0.0899
     46 H7         -0.3147   -0.3692    2.5015 H         1 <0>         0.0989
     47 H8          0.5529   -2.4010    3.6274 H         1 <0>         0.1340
     48 H9          2.0333   -1.5204    4.0758 H         1 <0>         0.1312
     49 H10         1.9780    0.1851    5.7010 H         1 <0>         0.1192
     50 H11         0.8508    1.0889    4.6614 H         1 <0>         0.1298
     51 H12         0.4261    0.7581    6.3579 H         1 <0>         0.1397
     52 H13         0.0013   -2.8306    5.8307 H         1 <0>         0.1625
     53 H14         1.4391   -1.9833    6.4498 H         1 <0>         0.1622
     54 H15        -0.0777   -3.0139    8.4848 H         1 <0>         0.4203
     55 H16         0.1162   -2.7980   10.9639 H         1 <0>         0.1338
     56 H17        -0.9306   -1.8748   12.9905 H         1 <0>         0.1379
     57 H18        -3.3925    0.6465   10.5723 H         1 <0>         0.1427
     58 H19        -2.3390   -0.2676    8.5450 H         1 <0>         0.1626
     59 H20        -0.6201    0.9885   14.0307 H         1 <0>         0.1413
     60 H21         0.3640    0.4011   16.2051 H         1 <0>         0.1484
     61 H22        -2.8119   -2.4044   16.8716 H         1 <0>         0.1427
     62 H23        -3.7920   -1.8008   14.6997 H         1 <0>         0.1434
     63 H24         1.5633   -1.2318   20.3658 H         1 <0>         0.1904
     64 H25        -0.3574   -2.9631   20.7949 H         1 <0>         0.2219
     65 H26         2.7925   -0.7714   -0.9258 H         1 <0>         0.0423
     66 H27         1.2760   -1.6978   -1.0289 H         1 <0>         0.0807
     67 H28        -0.6053   -0.8645   -2.3123 H         1 <0>         0.1119
     68 H29        -1.3419    0.5281   -4.2006 H         1 <0>         0.1270
     69 H30         2.3222    2.7491   -3.9644 H         1 <0>         0.1266
     70 H31         3.0340    1.3498   -2.0715 H         1 <0>         0.1083
     71 H32        -0.6819   -0.7274    4.8572 H         1 <0>         0.4336
@<TRIPOS>BOND
     1    1    2 1
     2    1   40 1
     3    1   41 1
     4    1   42 1
     5    2    3 1
     6    2   30 1
     7    3    4 1
     8    3   43 1
     9    3   44 1
    10    4    5 1
    11    4   45 1
    12    4   46 1
    13    5    6 1
    14    5   47 1
    15    5   48 1
    16    6    7 1
    17    6    8 1
    18    6   71 1
    19    7   49 1
    20    7   50 1
    21    7   51 1
    22    8    9 1
    23    8   52 1
    24    8   53 1
    25    9   10 2
    26    9   11 am
    27   11   12 1
    28   11   54 1
    29   12   17 ar
    30   12   13 ar
    31   13   14 ar
    32   13   55 1
    33   14   15 ar
    34   14   56 1
    35   15   16 ar
    36   15   18 1
    37   16   17 ar
    38   16   57 1
    39   17   58 1
    40   18   19 1
    41   19   24 ar
    42   19   20 ar
    43   20   21 ar
    44   20   59 1
    45   21   22 ar
    46   21   60 1
    47   22   23 ar
    48   22   25 1
    49   23   24 ar
    50   23   61 1
    51   24   62 1
    52   25   29 1
    53   25   26 2
    54   26   27 1
    55   27   28 2
    56   27   63 1
    57   28   29 1
    58   28   64 1
    59   30   31 1
    60   30   65 1
    61   30   66 1
    62   31   36 ar
    63   31   32 ar
    64   32   33 ar
    65   32   67 1
    66   33   34 ar
    67   33   68 1
    68   34   35 ar
    69   34   37 1
    70   35   36 ar
    71   35   69 1
    72   36   70 1
    73   37   38 2
    74   37   39 1
@<TRIPOS>MOLECULE
CHEMBL470755__1
   71    74     0     0     0
SMALL
USER_CHARGES

@<TRIPOS>ATOM
      1 C1         -1.4560    1.3530    1.2647 C.3       1 <0>        -0.0557
      2 N1         -0.8607    0.0883    0.8128 N.4       1 <0>        -0.3838
      3 C2         -1.9283   -0.8530    0.4491 C.3       1 <0>        -0.0073
      4 C3         -2.6952   -0.3121   -0.7593 C.3       1 <0>        -0.1488
      5 C4         -3.8071   -1.2925   -1.1381 C.3       1 <0>         0.0590
      6 N2         -4.5435   -0.7732   -2.2983 N.3       1 <0>        -0.5231
      7 C5         -5.2660    0.4589   -1.9548 C.3       1 <0>         0.0105
      8 C6         -5.4591   -1.7874   -2.8377 C.3       1 <0>         0.0369
      9 C7         -6.0104   -1.3150   -4.1583 C.2       1 <0>         0.5136
     10 O1         -5.6736   -0.2393   -4.6061 O.2       1 <0>        -0.4982
     11 N3         -6.8775   -2.0879   -4.8418 N.am      1 <0>        -0.6686
     12 C8         -7.5195   -1.5827   -5.9799 C.ar      1 <0>         0.1116
     13 C9         -8.7557   -2.0870   -6.3614 C.ar      1 <0>        -0.1094
     14 C10        -9.3879   -1.5887   -7.4832 C.ar      1 <0>        -0.1708
     15 C11        -8.7882   -0.5842   -8.2293 C.ar      1 <0>         0.1074
     16 C12        -7.5526   -0.0803   -7.8488 C.ar      1 <0>        -0.1222
     17 C13        -6.9224   -0.5735   -6.7236 C.ar      1 <0>        -0.0967
     18 O2         -9.4111   -0.0940   -9.3337 O.3       1 <0>        -0.2571
     19 C14       -10.6923   -0.4794   -9.5669 C.ar      1 <0>         0.1051
     20 C15       -11.7299    0.0875   -8.8376 C.ar      1 <0>        -0.1328
     21 C16       -13.0313   -0.3009   -9.0714 C.ar      1 <0>        -0.0548
     22 C17       -13.3062   -1.2656  -10.0428 C.ar      1 <0>        -0.0177
     23 C18       -12.2604   -1.8331  -10.7738 C.ar      1 <0>        -0.0730
     24 C19       -10.9623   -1.4353  -10.5382 C.ar      1 <0>        -0.1226
     25 C20       -14.7000   -1.6852  -10.2962 C.2       1 <0>         0.2274
     26 N4        -15.7635   -1.2234   -9.6809 N.2       1 <0>        -0.4689
     27 C21       -16.8476   -1.8393  -10.1774 C.2       1 <0>        -0.0383
     28 C22       -16.4347   -2.7020  -11.1230 C.2       1 <0>        -0.0660
     29 O3        -15.0925   -2.6000  -11.1998 O.3       1 <0>        -0.1965
     30 C23        -0.0498   -0.4854    1.8950 C.3       1 <0>         0.0530
     31 C24         1.1169    0.4234    2.1844 C.ar      1 <0>        -0.1832
     32 C25         2.3094    0.2511    1.5037 C.ar      1 <0>        -0.1087
     33 C26         3.3816    1.0788    1.7637 C.ar      1 <0>        -0.0846
     34 C27         3.2614    2.0935    2.7166 C.ar      1 <0>        -0.0892
     35 C28         2.0542    2.2619    3.3996 C.ar      1 <0>        -0.0851
     36 C29         0.9889    1.4299    3.1255 C.ar      1 <0>        -0.1119
     37 C30         4.4040    2.9827    3.0006 C.2       1 <0>         0.5090
     38 O4          5.4594    2.8325    2.4014 O.co2     1 <0>        -0.6719
     39 O5          4.2956    3.8699    3.8353 O.co2     1 <0>        -0.6724
     40 H1         -0.6639    2.0514    1.5346 H         1 <0>         0.1299
     41 H2         -2.0578    1.7787    0.4617 H         1 <0>         0.1201
     42 H3         -2.0881    1.1673    2.1330 H         1 <0>         0.1191
     43 H4         -1.4908   -1.8195    0.1988 H         1 <0>         0.1297
     44 H5         -2.6115   -0.9703    1.2903 H         1 <0>         0.1267
     45 H6         -3.1327    0.6544   -0.5090 H         1 <0>         0.0894
     46 H7         -2.0121   -0.1948   -1.6005 H         1 <0>         0.0980
     47 H8         -3.3696   -2.2590   -1.3884 H         1 <0>         0.0866
     48 H9         -4.4903   -1.4098   -0.2969 H         1 <0>         0.0466
     49 H10        -4.5556    1.2165   -1.6241 H         1 <0>         0.0712
     50 H11        -5.8025    0.8219   -2.8315 H         1 <0>         0.0929
     51 H12        -5.9761    0.2524   -1.1540 H         1 <0>         0.0268
     52 H13        -4.9197   -2.7234   -2.9830 H         1 <0>         0.1107
     53 H14        -6.2792   -1.9457   -2.1374 H         1 <0>         0.0726
     54 H15        -7.0572   -2.9940   -4.5457 H         1 <0>         0.4117
     55 H16        -9.2225   -2.8690   -5.7810 H         1 <0>         0.1297
     56 H17       -10.3493   -1.9811   -7.7802 H         1 <0>         0.1327
     57 H18        -7.0861    0.7013   -8.4300 H         1 <0>         0.1382
     58 H19        -5.9629   -0.1778   -6.4248 H         1 <0>         0.1644
     59 H20       -11.5164    0.8334   -8.0863 H         1 <0>         0.1412
     60 H21       -13.8374    0.1400   -8.5038 H         1 <0>         0.1471
     61 H22       -12.4692   -2.5795  -11.5260 H         1 <0>         0.1412
     62 H23       -10.1534   -1.8703  -11.1064 H         1 <0>         0.1427
     63 H24       -17.8699   -1.6721   -9.8717 H         1 <0>         0.1895
     64 H25       -17.0622   -3.3524  -11.7143 H         1 <0>         0.2209
     65 H26        -0.6611   -0.5886    2.7916 H         1 <0>         0.1292
     66 H27         0.3193   -1.4653    1.5922 H         1 <0>         0.1306
     67 H28         2.4008   -0.5337    0.7674 H         1 <0>         0.1222
     68 H29         4.3118    0.9427    1.2322 H         1 <0>         0.1386
     69 H30         1.9543    3.0441    4.1375 H         1 <0>         0.1384
     70 H31         0.0537    1.5616    3.6495 H         1 <0>         0.1215
     71 H32        -0.2756    0.2603    0.0090 H         1 <0>         0.4254
@<TRIPOS>BOND
     1    1    2 1
     2    1   40 1
     3    1   41 1
     4    1   42 1
     5    2    3 1
     6    2   30 1
     7    2   71 1
     8    3    4 1
     9    3   43 1
    10    3   44 1
    11    4    5 1
    12    4   45 1
    13    4   46 1
    14    5    6 1
    15    5   47 1
    16    5   48 1
    17    6    7 1
    18    6    8 1
    19    7   49 1
    20    7   50 1
    21    7   51 1
    22    8    9 1
    23    8   52 1
    24    8   53 1
    25    9   10 2
    26    9   11 am
    27   11   12 1
    28   11   54 1
    29   12   17 ar
    30   12   13 ar
    31   13   14 ar
    32   13   55 1
    33   14   15 ar
    34   14   56 1
    35   15   16 ar
    36   15   18 1
    37   16   17 ar
    38   16   57 1
    39   17   58 1
    40   18   19 1
    41   19   24 ar
    42   19   20 ar
    43   20   21 ar
    44   20   59 1
    45   21   22 ar
    46   21   60 1
    47   22   23 ar
    48   22   25 1
    49   23   24 ar
    50   23   61 1
    51   24   62 1
    52   25   29 1
    53   25   26 2
    54   26   27 1
    55   27   28 2
    56   27   63 1
    57   28   29 1
    58   28   64 1
    59   30   31 1
    60   30   65 1
    61   30   66 1
    62   31   36 ar
    63   31   32 ar
    64   32   33 ar
    65   32   67 1
    66   33   34 ar
    67   33   68 1
    68   34   35 ar
    69   34   37 1
    70   35   36 ar
    71   35   69 1
    72   36   70 1
    73   37   38 2
    74   37   39 1
@<TRIPOS>MOLECULE
CHEMBL482255
   52    55     0     0     0
SMALL
USER_CHARGES

@<TRIPOS>ATOM
      1 C1          0.1977   -1.9266   -4.6238 C.ar      1 <0>        -0.1002
      2 C2          1.4114   -1.6291   -5.2262 C.ar      1 <0>        -0.1169
      3 C3          2.5908   -1.7747   -4.5312 C.ar      1 <0>        -0.0717
      4 C4          2.5658   -2.2252   -3.2089 C.ar      1 <0>         0.0672
      5 C5          1.3341   -2.5246   -2.6036 C.ar      1 <0>         0.0511
      6 C6          0.1558   -2.3724   -3.3192 C.ar      1 <0>        -0.1042
      7 N1          1.6293   -2.9383   -1.3160 N.pl3     1 <0>        -0.5852
      8 H1          0.9910   -3.2161   -0.6405 H         1 <0>         0.4296
      9 C7          2.9849   -2.8828   -1.1737 C.2       1 <0>         0.4558
     10 N2          3.5330   -2.4643   -2.2848 N.2       1 <0>        -0.5191
     11 O1          3.6620   -3.2119   -0.0497 O.3       1 <0>        -0.2337
     12 C8          5.0209   -3.2007   -0.0966 C.ar      1 <0>         0.0768
     13 C9          5.7065   -1.9955   -0.0543 C.ar      1 <0>        -0.0616
     14 C10         7.0868   -1.9842   -0.1020 C.ar      1 <0>        -0.1274
     15 C11         7.7874   -3.1779   -0.1923 C.ar      1 <0>         0.1249
     16 C12         7.1019   -4.3830   -0.2351 C.ar      1 <0>        -0.1906
     17 C13         5.7218   -4.3947   -0.1812 C.ar      1 <0>        -0.0673
     18 O2          9.1463   -3.1666   -0.2393 O.3       1 <0>        -0.3238
     19 C14         9.8027   -4.4326   -0.3320 C.3       1 <0>         0.0233
     20 C15        11.3173   -4.2199   -0.3734 C.3       1 <0>        -0.0003
     21 N3         11.7656   -3.6421    0.9006 N.4       1 <0>        -0.3792
     22 C16        11.5845   -4.6025    1.9650 C.3       1 <0>        -0.0250
     23 C17        11.1519   -3.9136    3.2707 C.3       1 <0>        -0.1441
     24 C18        11.9085   -2.5953    3.5260 C.3       1 <0>        -0.1427
     25 C19        13.3801   -2.6838    3.2170 C.3       1 <0>        -0.1340
     26 C20        13.6173   -2.2671    1.7453 C.3       1 <0>        -0.1572
     27 C21        13.2020   -3.3230    0.8265 C.3       1 <0>        -0.0022
     28 H2         -0.7208   -1.8041   -5.1786 H         1 <0>         0.1356
     29 H3          1.4312   -1.2808   -6.2483 H         1 <0>         0.1343
     30 H4          3.5321   -1.5419   -5.0066 H         1 <0>         0.1310
     31 H5         -0.7922   -2.6027   -2.8561 H         1 <0>         0.1276
     32 H6          5.1609   -1.0660    0.0157 H         1 <0>         0.1431
     33 H7          7.6205   -1.0458   -0.0694 H         1 <0>         0.1427
     34 H8          7.6475   -5.3123   -0.3062 H         1 <0>         0.1369
     35 H9          5.1883   -5.3333   -0.2093 H         1 <0>         0.1403
     36 H10         9.5446   -5.0401    0.5354 H         1 <0>         0.0882
     37 H11         9.4824   -4.9422   -1.2408 H         1 <0>         0.1125
     38 H12        11.8143   -5.1767   -0.5333 H         1 <0>         0.1514
     39 H13        11.5666   -3.5403   -1.1883 H         1 <0>         0.1442
     40 H14        10.8201   -5.3217    1.6706 H         1 <0>         0.1264
     41 H15        12.5234   -5.1299    2.1336 H         1 <0>         0.1309
     42 H16        10.0838   -3.7023    3.2202 H         1 <0>         0.0886
     43 H17        11.3354   -4.5918    4.1041 H         1 <0>         0.1068
     44 H18        11.4676   -1.8135    2.9077 H         1 <0>         0.0660
     45 H19        11.7870   -2.3195    4.5735 H         1 <0>         0.0915
     46 H20        13.9319   -2.0154    3.8780 H         1 <0>         0.0905
     47 H21        13.7224   -3.7080    3.3651 H         1 <0>         0.0777
     48 H22        13.0461   -1.3634    1.5330 H         1 <0>         0.0877
     49 H23        14.6776   -2.0617    1.5982 H         1 <0>         0.1178
     50 H24        13.7712   -4.2248    1.0522 H         1 <0>         0.1283
     51 H25        13.4376   -3.0116   -0.1912 H         1 <0>         0.1274
     52 H26        11.2390   -2.8050    1.1007 H         1 <0>         0.4302
@<TRIPOS>BOND
     1    1    6 ar
     2    1    2 ar
     3    1   28 1
     4    2    3 ar
     5    2   29 1
     6    3    4 ar
     7    3   30 1
     8    4   10 1
     9    4    5 ar
    10    5    6 ar
    11    5    7 1
    12    6   31 1
    13    7    8 1
    14    7    9 1
    15    9   10 2
    16    9   11 1
    17   11   12 1
    18   12   17 ar
    19   12   13 ar
    20   13   14 ar
    21   13   32 1
    22   14   15 ar
    23   14   33 1
    24   15   16 ar
    25   15   18 1
    26   16   17 ar
    27   16   34 1
    28   17   35 1
    29   18   19 1
    30   19   20 1
    31   19   36 1
    32   19   37 1
    33   20   21 1
    34   20   38 1
    35   20   39 1
    36   21   27 1
    37   21   22 1
    38   21   52 1
    39   22   23 1
    40   22   40 1
    41   22   41 1
    42   23   24 1
    43   23   42 1
    44   23   43 1
    45   24   25 1
    46   24   44 1
    47   24   45 1
    48   25   26 1
    49   25   46 1
    50   25   47 1
    51   26   27 1
    52   26   48 1
    53   26   49 1
    54   27   50 1
    55   27   51 1
@<TRIPOS>MOLECULE
CHEMBL520120
   51    54     0     0     0
SMALL
USER_CHARGES

@<TRIPOS>ATOM
      1 C1          0.0534   -0.2220   -4.2161 C.ar      1 <0>        -0.1027
      2 C2          1.1120   -0.1618   -5.1109 C.ar      1 <0>        -0.0922
      3 C3          2.3224   -0.7354   -4.7673 C.ar      1 <0>        -0.0638
      4 C4          2.4576   -1.3539   -3.5495 C.ar      1 <0>        -0.1377
      5 C5          1.4018   -1.4345   -2.6133 C.ar      1 <0>         0.0983
      6 C6          0.1792   -0.8374   -2.9982 C.ar      1 <0>        -0.0616
      7 N1          1.6906   -2.0756   -1.4597 N.2       1 <0>        -0.5089
      8 C7          2.8715   -2.5924   -1.2164 C.2       1 <0>         0.3337
      9 S1          3.7745   -2.1987   -2.7077 S.3       1 <0>        -0.0370
     10 O1          3.2976   -3.2548   -0.1161 O.3       1 <0>        -0.1851
     11 C8          4.5478   -3.7892   -0.1370 C.ar      1 <0>         0.0395
     12 C9          5.6557   -2.9682    0.0139 C.ar      1 <0>        -0.0733
     13 C10         6.9255   -3.5110   -0.0073 C.ar      1 <0>        -0.1250
     14 C11         7.0930   -4.8772   -0.1795 C.ar      1 <0>         0.1322
     15 C12         5.9852   -5.6981   -0.3309 C.ar      1 <0>        -0.1896
     16 C13         4.7151   -5.1562   -0.3035 C.ar      1 <0>        -0.0585
     17 O2          8.3431   -5.4116   -0.2004 O.3       1 <0>        -0.3234
     18 C14         8.4413   -6.8256   -0.3817 C.3       1 <0>         0.0208
     19 C15         9.9143   -7.2392   -0.3780 C.3       1 <0>        -0.0078
     20 N2         10.5040   -6.9389    0.9335 N.4       1 <0>        -0.3674
     21 C16        11.9666   -7.1155    0.8464 C.3       1 <0>        -0.0036
     22 C17        12.6103   -6.2684    1.9154 C.3       1 <0>        -0.1501
     23 C18        12.9073   -7.0909    3.1832 C.3       1 <0>        -0.1312
     24 C19        11.7578   -8.0631    3.5169 C.3       1 <0>        -0.1391
     25 C20        10.4007   -7.4380    3.3177 C.3       1 <0>        -0.1343
     26 C21         9.9037   -7.7571    1.8922 C.3       1 <0>        -0.0403
     27 H1         -0.8901    0.2304   -4.4837 H         1 <0>         0.1405
     28 H2          0.9919    0.3277   -6.0661 H         1 <0>         0.1439
     29 H3          3.1559   -0.6973   -5.4530 H         1 <0>         0.1364
     30 H4         -0.6646   -0.8663   -2.3247 H         1 <0>         0.1383
     31 H5          5.5253   -1.9044    0.1477 H         1 <0>         0.1497
     32 H6          7.7881   -2.8718    0.1098 H         1 <0>         0.1476
     33 H7          6.1157   -6.7617   -0.4657 H         1 <0>         0.1419
     34 H8          3.8524   -5.7961   -0.4162 H         1 <0>         0.1478
     35 H9          7.9194   -7.3330    0.4297 H         1 <0>         0.0908
     36 H10         7.9886   -7.1022   -1.3339 H         1 <0>         0.1136
     37 H11         9.9919   -8.3085   -0.5750 H         1 <0>         0.1520
     38 H12        10.4485   -6.6875   -1.1515 H         1 <0>         0.1457
     39 H13        12.2203   -8.1635    1.0057 H         1 <0>         0.1341
     40 H14        12.3173   -6.7972   -0.1353 H         1 <0>         0.1353
     41 H15        13.5436   -5.8574    1.5305 H         1 <0>         0.1091
     42 H16        11.9399   -5.4480    2.1717 H         1 <0>         0.0823
     43 H17        13.8226   -7.6624    3.0296 H         1 <0>         0.0807
     44 H18        13.0518   -6.4103    4.0223 H         1 <0>         0.0819
     45 H19        11.8400   -8.9404    2.8753 H         1 <0>         0.0693
     46 H20        11.8523   -8.3780    4.5562 H         1 <0>         0.0869
     47 H21         9.7010   -7.8452    4.0475 H         1 <0>         0.1093
     48 H22        10.4746   -6.3579    3.4448 H         1 <0>         0.0877
     49 H23         8.8237   -7.6149    1.8533 H         1 <0>         0.1278
     50 H24        10.1311   -8.7980    1.6623 H         1 <0>         0.1293
     51 H25        10.3090   -5.9757    1.1622 H         1 <0>         0.4258
@<TRIPOS>BOND
     1    1    6 ar
     2    1    2 ar
     3    1   27 1
     4    2    3 ar
     5    2   28 1
     6    3    4 ar
     7    3   29 1
     8    4    9 1
     9    4    5 ar
    10    5    6 ar
    11    5    7 1
    12    6   30 1
    13    7    8 2
    14    8    9 1
    15    8   10 1
    16   10   11 1
    17   11   16 ar
    18   11   12 ar
    19   12   13 ar
    20   12   31 1
    21   13   14 ar
    22   13   32 1
    23   14   15 ar
    24   14   17 1
    25   15   16 ar
    26   15   33 1
    27   16   34 1
    28   17   18 1
    29   18   19 1
    30   18   35 1
    31   18   36 1
    32   19   20 1
    33   19   37 1
    34   19   38 1
    35   20   26 1
    36   20   21 1
    37   20   51 1
    38   21   22 1
    39   21   39 1
    40   21   40 1
    41   22   23 1
    42   22   41 1
    43   22   42 1
    44   23   24 1
    45   23   43 1
    46   23   44 1
    47   24   25 1
    48   24   45 1
    49   24   46 1
    50   25   26 1
    51   25   47 1
    52   25   48 1
    53   26   49 1
    54   26   50 1
@<TRIPOS>MOLECULE
CHEMBL478298
   44    45     0     0     0
SMALL
USER_CHARGES

@<TRIPOS>ATOM
      1 C1          2.9017    1.3063   -3.6671 C.ar      1 <0>        -0.1517
      2 C2          3.1561    2.0390   -2.5224 C.ar      1 <0>        -0.0819
      3 C3          3.3872    1.3921   -1.3240 C.ar      1 <0>        -0.1452
      4 C4          3.3635    0.0058   -1.2694 C.ar      1 <0>         0.1194
      5 C5          3.1075   -0.7271   -2.4196 C.ar      1 <0>        -0.1966
      6 C6          2.8776   -0.0752   -3.6155 C.ar      1 <0>        -0.0822
      7 O1          3.5909   -0.6330   -0.0919 O.3       1 <0>        -0.2577
      8 C7          3.4596   -1.9858   -0.0639 C.ar      1 <0>         0.0756
      9 C8          4.4466   -2.7899   -0.6158 C.ar      1 <0>        -0.1142
     10 C9          4.3137   -4.1640   -0.5877 C.ar      1 <0>        -0.1042
     11 C10         3.1924   -4.7411   -0.0066 C.ar      1 <0>         0.1384
     12 C11         2.2053   -3.9359    0.5460 C.ar      1 <0>        -0.1266
     13 C12         2.3415   -2.5621    0.5216 C.ar      1 <0>        -0.1015
     14 N1          3.0569   -6.1352    0.0218 N.am      1 <0>        -0.6720
     15 C13         4.1450   -6.9150    0.1778 C.2       1 <0>         0.5131
     16 O2          5.2495   -6.4149    0.2138 O.2       1 <0>        -0.5090
     17 C14         3.9896   -8.4084    0.3073 C.3       1 <0>        -0.1552
     18 C15         5.3677   -9.0522    0.4723 C.3       1 <0>        -0.1325
     19 C16         5.2098  -10.5683    0.6038 C.3       1 <0>         0.0561
     20 H1          4.6508  -10.9509   -0.2502 H         1 <0>         0.1409
     21 C17         6.5919  -11.2234    0.6435 C.3       1 <0>        -0.2155
     22 C18         6.4373  -12.7225    0.6492 C.2       1 <0>         0.4829
     23 O3          5.3248  -13.2207    0.6239 O.co2     1 <0>        -0.7033
     24 O4          7.4247  -13.4371    0.6792 O.co2     1 <0>        -0.6559
     25 N2          4.4847  -10.8795    1.8429 N.4       1 <0>        -0.6287
     26 H2          2.7172    1.8141   -4.6022 H         1 <0>         0.1261
     27 H3          3.1744    3.1180   -2.5654 H         1 <0>         0.1323
     28 H4          3.5865    1.9649   -0.4303 H         1 <0>         0.1329
     29 H5          3.0888   -1.8062   -2.3799 H         1 <0>         0.1281
     30 H6          2.6787   -0.6452   -4.5111 H         1 <0>         0.1261
     31 H7          5.3186   -2.3410   -1.0678 H         1 <0>         0.1362
     32 H8          5.0817   -4.7898   -1.0179 H         1 <0>         0.1467
     33 H9          1.3329   -4.3843    0.9980 H         1 <0>         0.1357
     34 H10         1.5757   -1.9359    0.9550 H         1 <0>         0.1386
     35 H11         2.1799   -6.5392   -0.0707 H         1 <0>         0.4139
     36 H12         3.3757   -8.6355    1.1789 H         1 <0>         0.0923
     37 H13         3.5092   -8.8027   -0.5881 H         1 <0>         0.1140
     38 H14         5.9815   -8.8251   -0.3993 H         1 <0>         0.1158
     39 H15         5.8481   -8.6579    1.3677 H         1 <0>         0.0932
     40 H16         7.1630  -10.9204   -0.2341 H         1 <0>         0.1080
     41 H17         7.1173  -10.9089    1.5452 H         1 <0>         0.0854
     42 H18         4.3806  -11.8794    1.9296 H         1 <0>         0.4460
     43 H19         5.0021  -10.5254    2.6334 H         1 <0>         0.4206
     44 H20         3.5732  -10.4475    1.8167 H         1 <0>         0.4155
@<TRIPOS>BOND
     1    1    6 ar
     2    1    2 ar
     3    1   26 1
     4    2    3 ar
     5    2   27 1
     6    3    4 ar
     7    3   28 1
     8    4    5 ar
     9    4    7 1
    10    5    6 ar
    11    5   29 1
    12    6   30 1
    13    7    8 1
    14    8   13 ar
    15    8    9 ar
    16    9   10 ar
    17    9   31 1
    18   10   11 ar
    19   10   32 1
    20   11   12 ar
    21   11   14 1
    22   12   13 ar
    23   12   33 1
    24   13   34 1
    25   14   15 am
    26   14   35 1
    27   15   16 2
    28   15   17 1
    29   17   18 1
    30   17   36 1
    31   17   37 1
    32   18   19 1
    33   18   38 1
    34   18   39 1
    35   19   20 1
    36   19   21 1
    37   19   25 1
    38   21   22 1
    39   21   40 1
    40   21   41 1
    41   22   23 2
    42   22   24 1
    43   25   42 1
    44   25   43 1
    45   25   44 1
@<TRIPOS>MOLECULE
CHEMBL163822
   48    51     0     0     0
SMALL
USER_CHARGES

@<TRIPOS>ATOM
      1 C1         -0.0167    1.3781    0.0096 C.ar      1 <0>        -0.1224
      2 C2          1.1709    2.0855    0.0021 C.ar      1 <0>        -0.1176
      3 C3          2.3773    1.4107   -0.0130 C.ar      1 <0>        -0.1157
      4 C4          2.3960    0.0285   -0.0201 C.ar      1 <0>        -0.0790
      5 C5          1.2084   -0.6789   -0.0117 C.ar      1 <0>        -0.1155
      6 C6          0.0021   -0.0041    0.0020 C.ar      1 <0>        -0.1171
      7 C7          3.7112   -0.7071   -0.0376 C.3       1 <0>        -0.0424
      8 C8          4.1644   -0.9594    1.3773 C.ar      1 <0>        -0.1026
      9 C9          4.9522   -0.0267    2.0264 C.ar      1 <0>        -0.0738
     10 C10         5.3694   -0.2559    3.3232 C.ar      1 <0>        -0.1484
     11 C11         4.9969   -1.4228    3.9745 C.ar      1 <0>         0.1194
     12 C12         4.2060   -2.3568    3.3213 C.ar      1 <0>        -0.2008
     13 C13         3.7871   -2.1206    2.0262 C.ar      1 <0>        -0.0720
     14 O1          5.4064   -1.6507    5.2502 O.3       1 <0>        -0.3236
     15 C14         4.9849   -2.8733    5.8582 C.3       1 <0>         0.0587
     16 C15         5.5391   -2.9523    7.2821 C.3       1 <0>         0.0463
     17 N1          4.9437   -1.8865    8.0991 N.3       1 <0>        -0.5156
     18 C16         5.4921   -0.5607    7.7246 C.3       1 <0>         0.0155
     19 C17         6.1871   -0.0294    9.0163 C.3       1 <0>         0.0072
     20 C18         6.6819   -1.3889    9.6280 C.3       1 <0>        -0.1777
     21 C19         5.2711   -2.0747    9.5477 C.3       1 <0>         0.0525
     22 C20         4.4126   -0.9942   10.2754 C.3       1 <0>         0.0023
     23 N2          5.0506    0.2999    9.9334 N.4       1 <0>        -0.5190
     24 H1         -0.9591    1.9053    0.0259 H         1 <0>         0.1222
     25 H2          1.1563    3.1654    0.0076 H         1 <0>         0.1224
     26 H3          3.3051    1.9634   -0.0196 H         1 <0>         0.1202
     27 H4          1.2231   -1.7588   -0.0176 H         1 <0>         0.1200
     28 H5         -0.9258   -0.5567    0.0082 H         1 <0>         0.1226
     29 H6          3.5884   -1.6586   -0.5549 H         1 <0>         0.0838
     30 H7          4.4573   -0.1052   -0.5563 H         1 <0>         0.0843
     31 H8          5.2420    0.8815    1.5189 H         1 <0>         0.1300
     32 H9          5.9853    0.4726    3.8295 H         1 <0>         0.1268
     33 H10         3.9147   -3.2660    3.8262 H         1 <0>         0.1267
     34 H11         3.1678   -2.8454    1.5188 H         1 <0>         0.1263
     35 H12         3.8958   -2.9068    5.8898 H         1 <0>         0.0757
     36 H13         5.3576   -3.7160    5.2759 H         1 <0>         0.0754
     37 H14         5.2928   -3.9221    7.7145 H         1 <0>         0.1080
     38 H15         6.6219   -2.8297    7.2579 H         1 <0>         0.0611
     39 H16         6.2192   -0.6656    6.9193 H         1 <0>         0.1206
     40 H17         4.6875    0.1105    7.4241 H         1 <0>         0.1055
     41 H18         6.9324    0.7534    8.8751 H         1 <0>         0.1784
     42 H19         7.4197   -1.8834    8.9962 H         1 <0>         0.1206
     43 H20         7.0313   -1.2786   10.6546 H         1 <0>         0.1090
     44 H21         5.2039   -3.0945    9.9266 H         1 <0>         0.1598
     45 H22         3.3857   -1.0180    9.9108 H         1 <0>         0.1439
     46 H23         4.4363   -1.1547   11.3532 H         1 <0>         0.1382
     47 H24         5.3969    0.7479   10.7686 H         1 <0>         0.4282
     48 H25         4.3888    0.9003    9.4646 H         1 <0>         0.4320
@<TRIPOS>BOND
     1    1    6 ar
     2    1    2 ar
     3    1   24 1
     4    2    3 ar
     5    2   25 1
     6    3    4 ar
     7    3   26 1
     8    4    5 ar
     9    4    7 1
    10    5    6 ar
    11    5   27 1
    12    6   28 1
    13    7    8 1
    14    7   29 1
    15    7   30 1
    16    8   13 ar
    17    8    9 ar
    18    9   10 ar
    19    9   31 1
    20   10   11 ar
    21   10   32 1
    22   11   12 ar
    23   11   14 1
    24   12   13 ar
    25   12   33 1
    26   13   34 1
    27   14   15 1
    28   15   16 1
    29   15   35 1
    30   15   36 1
    31   16   17 1
    32   16   37 1
    33   16   38 1
    34   17   21 1
    35   17   18 1
    36   18   19 1
    37   18   39 1
    38   18   40 1
    39   19   23 1
    40   19   20 1
    41   19   41 1
    42   20   21 1
    43   20   42 1
    44   20   43 1
    45   21   22 1
    46   21   44 1
    47   22   23 1
    48   22   45 1
    49   22   46 1
    50   23   47 1
    51   23   48 1
@<TRIPOS>MOLECULE
CHEMBL163822__1
   48    51     0     0     0
SMALL
USER_CHARGES

@<TRIPOS>ATOM
      1 C1         -0.2428    1.1973    0.0808 C.ar      1 <0>        -0.1219
      2 C2          0.9324    1.9239    0.0391 C.ar      1 <0>        -0.1172
      3 C3          2.1493    1.2688    0.0059 C.ar      1 <0>        -0.1156
      4 C4          2.1909   -0.1129    0.0148 C.ar      1 <0>        -0.0798
      5 C5          1.0157   -0.8395    0.0574 C.ar      1 <0>        -0.1156
      6 C6         -0.2012   -0.1844    0.0892 C.ar      1 <0>        -0.1170
      7 C7          3.5174   -0.8270   -0.0224 C.3       1 <0>        -0.0420
      8 C8          4.0051   -1.0545    1.3853 C.ar      1 <0>        -0.1021
      9 C9          4.7909   -0.1012    2.0060 C.ar      1 <0>        -0.0736
     10 C10         5.2396   -0.3076    3.2961 C.ar      1 <0>        -0.1477
     11 C11         4.9007   -1.4724    3.9691 C.ar      1 <0>         0.1201
     12 C12         4.1116   -2.4272    3.3443 C.ar      1 <0>        -0.2009
     13 C13         3.6612   -2.2137    2.0559 C.ar      1 <0>        -0.0720
     14 O1          5.3412   -1.6780    5.2382 O.3       1 <0>        -0.3236
     15 C14         4.9532   -2.8998    5.8697 C.3       1 <0>         0.0599
     16 C15         5.5391   -2.9523    7.2821 C.3       1 <0>         0.0416
     17 N1          4.9437   -1.8865    8.0991 N.3       1 <0>        -0.5121
     18 C16         5.5771   -0.5777    7.8086 C.3       1 <0>         0.0242
     19 C17         6.1279   -0.0799    9.1808 C.3       1 <0>         0.0044
     20 C18         5.0392   -0.6856   10.1375 C.3       1 <0>        -0.1386
     21 C19         5.1683   -2.1395    9.5573 C.3       1 <0>         0.0595
     22 C20         6.7117   -2.3333    9.6768 C.3       1 <0>        -0.0545
     23 N2          7.2878   -0.9845    9.4586 N.4       1 <0>        -0.5212
     24 H1         -1.1933    1.7091    0.1113 H         1 <0>         0.1225
     25 H2          0.8999    3.0034    0.0322 H         1 <0>         0.1226
     26 H3          3.0674    1.8365   -0.0273 H         1 <0>         0.1200
     27 H4          1.0482   -1.9190    0.0640 H         1 <0>         0.1198
     28 H5         -1.1194   -0.7521    0.1220 H         1 <0>         0.1227
     29 H6          3.3994   -1.7867   -0.5256 H         1 <0>         0.0837
     30 H7          4.2421   -0.2193   -0.5642 H         1 <0>         0.0841
     31 H8          5.0545    0.8054    1.4816 H         1 <0>         0.1302
     32 H9          5.8540    0.4370    3.7803 H         1 <0>         0.1267
     33 H10         3.8464   -3.3348    3.8661 H         1 <0>         0.1265
     34 H11         3.0432   -2.9547    1.5706 H         1 <0>         0.1265
     35 H12         3.8658   -2.9508    5.9252 H         1 <0>         0.0791
     36 H13         5.3273   -3.7434    5.2895 H         1 <0>         0.0744
     37 H14         5.3183   -3.9207    7.7312 H         1 <0>         0.1097
     38 H15         6.6189   -2.8123    7.2330 H         1 <0>         0.0508
     39 H16         6.3925   -0.7016    7.0959 H         1 <0>         0.0922
     40 H17         4.8376    0.1230    7.4209 H         1 <0>         0.1262
     41 H18         6.3227    0.9894    9.2624 H         1 <0>         0.1813
     42 H19         5.3319   -0.6302   11.1860 H         1 <0>         0.1091
     43 H20         4.0519   -0.2569    9.9657 H         1 <0>         0.1323
     44 H21         4.5390   -2.9031   10.0147 H         1 <0>         0.1664
     45 H22         6.9715   -2.6998   10.6699 H         1 <0>         0.1417
     46 H23         7.0666   -3.0247    8.9125 H         1 <0>         0.1380
     47 H24         7.9146   -0.9983    8.6680 H         1 <0>         0.4286
     48 H25         7.7771   -0.6779   10.2860 H         1 <0>         0.4307
@<TRIPOS>BOND
     1    1    6 ar
     2    1    2 ar
     3    1   24 1
     4    2    3 ar
     5    2   25 1
     6    3    4 ar
     7    3   26 1
     8    4    5 ar
     9    4    7 1
    10    5    6 ar
    11    5   27 1
    12    6   28 1
    13    7    8 1
    14    7   29 1
    15    7   30 1
    16    8   13 ar
    17    8    9 ar
    18    9   10 ar
    19    9   31 1
    20   10   11 ar
    21   10   32 1
    22   11   12 ar
    23   11   14 1
    24   12   13 ar
    25   12   33 1
    26   13   34 1
    27   14   15 1
    28   15   16 1
    29   15   35 1
    30   15   36 1
    31   16   17 1
    32   16   37 1
    33   16   38 1
    34   17   21 1
    35   17   18 1
    36   18   19 1
    37   18   39 1
    38   18   40 1
    39   19   23 1
    40   19   20 1
    41   19   41 1
    42   20   21 1
    43   20   42 1
    44   20   43 1
    45   21   22 1
    46   21   44 1
    47   22   23 1
    48   22   45 1
    49   22   46 1
    50   23   47 1
    51   23   48 1
@<TRIPOS>MOLECULE
CHEMBL419220
   53    55     0     0     0
SMALL
USER_CHARGES

@<TRIPOS>ATOM
      1 C1          0.8023   -0.7619   -1.2344 C.3       1 <0>        -0.0541
      2 N1          0.5414   -2.1819   -1.5054 N.4       1 <0>        -0.3860
      3 C2         -0.8906   -2.4587   -1.3308 C.3       1 <0>        -0.0057
      4 C3         -1.6906   -1.6917   -2.3856 C.3       1 <0>        -0.1489
      5 C4         -3.1822   -1.9800   -2.2038 C.3       1 <0>         0.0628
      6 O1         -3.9294   -1.2636   -3.1890 O.3       1 <0>        -0.3124
      7 C5         -5.2809   -1.4110   -3.1665 C.ar      1 <0>         0.0945
      8 C6         -5.8741   -2.2239   -2.2119 C.ar      1 <0>        -0.1674
      9 C7         -7.2469   -2.3740   -2.1892 C.ar      1 <0>        -0.1532
     10 C8         -8.0326   -1.7114   -3.1211 C.ar      1 <0>         0.0930
     11 C9         -7.4392   -0.8981   -4.0755 C.ar      1 <0>        -0.1020
     12 C10        -6.0668   -0.7440   -4.0947 C.ar      1 <0>        -0.1082
     13 O2         -9.3839   -1.8595   -3.0991 O.3       1 <0>        -0.2566
     14 C11        -9.9223   -2.6591   -2.1422 C.ar      1 <0>         0.1003
     15 C12       -10.2892   -2.1207   -0.9155 C.ar      1 <0>        -0.1247
     16 C13       -10.8363   -2.9287    0.0578 C.ar      1 <0>        -0.0566
     17 C14       -11.0216   -4.2900   -0.1905 C.ar      1 <0>        -0.0110
     18 C15       -10.6516   -4.8274   -1.4247 C.ar      1 <0>        -0.0781
     19 C16       -10.1100   -4.0120   -2.3950 C.ar      1 <0>        -0.1223
     20 C17       -11.6075   -5.1601    0.8508 C.2       1 <0>         0.1443
     21 N2        -12.0247   -4.8491    2.0703 N.2       1 <0>        -0.4940
     22 C18       -12.5251   -5.7603    2.8721 C.2       1 <0>         0.0266
     23 C19       -12.6223   -7.0501    2.4548 C.2       1 <0>        -0.1932
     24 S1        -11.9520   -6.9139    0.8023 S.3       1 <0>         0.0167
     25 C20         1.3174   -3.0092   -0.5718 C.3       1 <0>         0.0142
     26 C21         2.8114   -2.8141   -0.8383 C.3       1 <0>        -0.2158
     27 C22         3.6074   -3.6627    0.1194 C.2       1 <0>         0.4967
     28 O3          3.0331   -4.3590    0.9391 O.co2     1 <0>        -0.6871
     29 O4          4.8258   -3.6530    0.0746 O.co2     1 <0>        -0.6716
     30 H1          1.8649   -0.5565   -1.3640 H         1 <0>         0.1265
     31 H2          0.2265   -0.1481   -1.9271 H         1 <0>         0.1180
     32 H3          0.5091   -0.5274   -0.2111 H         1 <0>         0.1204
     33 H4         -1.0706   -3.5277   -1.4445 H         1 <0>         0.1321
     34 H5         -1.2034   -2.1414   -0.3359 H         1 <0>         0.1308
     35 H6         -1.5107   -0.6227   -2.2718 H         1 <0>         0.0979
     36 H7         -1.3779   -2.0090   -3.3804 H         1 <0>         0.0972
     37 H8         -3.3622   -3.0490   -2.3175 H         1 <0>         0.0722
     38 H9         -3.4949   -1.6627   -1.2089 H         1 <0>         0.0717
     39 H10        -5.2625   -2.7397   -1.4865 H         1 <0>         0.1312
     40 H11        -7.7087   -3.0075   -1.4464 H         1 <0>         0.1332
     41 H12        -8.0507   -0.3825   -4.8012 H         1 <0>         0.1440
     42 H13        -5.6052   -0.1073   -4.8349 H         1 <0>         0.1419
     43 H14       -10.1453   -1.0676   -0.7239 H         1 <0>         0.1415
     44 H15       -11.1210   -2.5095    1.0116 H         1 <0>         0.1458
     45 H16       -10.7934   -5.8800   -1.6204 H         1 <0>         0.1368
     46 H17        -9.8276   -4.4262   -3.3516 H         1 <0>         0.1418
     47 H18       -12.8587   -5.4855    3.8618 H         1 <0>         0.1724
     48 H19       -13.0026   -7.9165    2.9755 H         1 <0>         0.2027
     49 H20         1.0892   -2.7130    0.4520 H         1 <0>         0.1290
     50 H21         1.0571   -4.0581   -0.7132 H         1 <0>         0.1298
     51 H22         3.0396   -3.1102   -1.8621 H         1 <0>         0.0807
     52 H23         3.0717   -1.7651   -0.6969 H         1 <0>         0.0818
     53 H24         0.8129   -2.3990   -2.4526 H         1 <0>         0.4205
@<TRIPOS>BOND
     1    1    2 1
     2    1   30 1
     3    1   31 1
     4    1   32 1
     5    2    3 1
     6    2   25 1
     7    2   53 1
     8    3    4 1
     9    3   33 1
    10    3   34 1
    11    4    5 1
    12    4   35 1
    13    4   36 1
    14    5    6 1
    15    5   37 1
    16    5   38 1
    17    6    7 1
    18    7   12 ar
    19    7    8 ar
    20    8    9 ar
    21    8   39 1
    22    9   10 ar
    23    9   40 1
    24   10   11 ar
    25   10   13 1
    26   11   12 ar
    27   11   41 1
    28   12   42 1
    29   13   14 1
    30   14   19 ar
    31   14   15 ar
    32   15   16 ar
    33   15   43 1
    34   16   17 ar
    35   16   44 1
    36   17   18 ar
    37   17   20 1
    38   18   19 ar
    39   18   45 1
    40   19   46 1
    41   20   24 1
    42   20   21 2
    43   21   22 1
    44   22   23 2
    45   22   47 1
    46   23   24 1
    47   23   48 1
    48   25   26 1
    49   25   49 1
    50   25   50 1
    51   26   27 1
    52   26   51 1
    53   26   52 1
    54   27   28 2
    55   27   29 1
@<TRIPOS>MOLECULE
CHEMBL118014
   52    54     0     0     0
SMALL
USER_CHARGES

@<TRIPOS>ATOM
      1 C1         -0.0178    1.4648    0.0101 C.3       1 <0>        -0.0642
      2 N1          0.0021   -0.0041    0.0020 N.4       1 <0>        -0.3801
      3 C2          0.6897   -0.4778   -1.2066 C.3       1 <0>        -0.0057
      4 C3          2.1588   -0.0534   -1.1571 C.3       1 <0>        -0.1501
      5 C4          2.8749   -0.5468   -2.4159 C.3       1 <0>         0.0627
      6 O1          4.2470   -0.1503   -2.3696 O.3       1 <0>        -0.3141
      7 C5          5.0295   -0.5121   -3.4202 C.ar      1 <0>         0.1147
      8 C6          4.4865   -1.2289   -4.4766 C.ar      1 <0>        -0.2030
      9 C7          5.2840   -1.5951   -5.5436 C.ar      1 <0>        -0.0739
     10 C8          6.6223   -1.2482   -5.5590 C.ar      1 <0>        -0.0990
     11 C9          7.1660   -0.5343   -4.5071 C.ar      1 <0>        -0.0718
     12 C10         6.3714   -0.1604   -3.4407 C.ar      1 <0>        -0.1413
     13 C11         7.4900   -1.6494   -6.7239 C.3       1 <0>        -0.0425
     14 C12         7.4564   -0.5667   -7.7716 C.ar      1 <0>        -0.0807
     15 C13         6.4972   -0.5972   -8.7666 C.ar      1 <0>        -0.1162
     16 C14         6.4663    0.3959   -9.7276 C.ar      1 <0>        -0.1177
     17 C15         7.3944    1.4198   -9.6935 C.ar      1 <0>        -0.1215
     18 C16         8.3530    1.4509   -8.6980 C.ar      1 <0>        -0.1165
     19 C17         8.3812    0.4601   -7.7344 C.ar      1 <0>        -0.1150
     20 C18        -1.3761   -0.5125    0.0124 C.3       1 <0>        -0.0254
     21 C19        -2.0530   -0.1242    1.3284 C.3       1 <0>         0.0984
     22 N2         -3.4274   -0.6312    1.3388 N.pl3     1 <0>        -0.3298
     23 C20        -3.9827   -1.4166    2.2804 C.2       1 <0>         0.1786
     24 N3         -5.2197   -1.6354    1.9062 N.2       1 <0>        -0.2883
     25 N4         -5.4140   -1.0168    0.7928 N.2       1 <0>        -0.0437
     26 N5         -4.3347   -0.4044    0.4500 N.2       1 <0>        -0.0956
     27 H1          1.0047    1.8421    0.0024 H         1 <0>         0.1347
     28 H2         -0.5450    1.8259   -0.8730 H         1 <0>         0.1309
     29 H3         -0.5280    1.8163    0.9069 H         1 <0>         0.1273
     30 H4          0.6271   -1.5648   -1.2578 H         1 <0>         0.1379
     31 H5          0.2159   -0.0447   -2.0875 H         1 <0>         0.1387
     32 H6          2.2214    1.0336   -1.1059 H         1 <0>         0.1015
     33 H7          2.6326   -0.4865   -0.2761 H         1 <0>         0.1009
     34 H8          2.8123   -1.6338   -2.4670 H         1 <0>         0.0724
     35 H9          2.4011   -0.1137   -3.2968 H         1 <0>         0.0724
     36 H10         3.4414   -1.5007   -4.4647 H         1 <0>         0.1244
     37 H11         4.8617   -2.1531   -6.3662 H         1 <0>         0.1271
     38 H12         8.2117   -0.2648   -4.5213 H         1 <0>         0.1332
     39 H13         6.7955    0.4011   -2.6214 H         1 <0>         0.1324
     40 H14         8.5150   -1.7919   -6.3815 H         1 <0>         0.0854
     41 H15         7.1170   -2.5802   -7.1512 H         1 <0>         0.0840
     42 H16         5.7721   -1.3972   -8.7933 H         1 <0>         0.1192
     43 H17         5.7174    0.3716  -10.5054 H         1 <0>         0.1224
     44 H18         7.3707    2.1954  -10.4447 H         1 <0>         0.1227
     45 H19         9.0783    2.2507   -8.6715 H         1 <0>         0.1234
     46 H20         9.1278    0.4864   -6.9545 H         1 <0>         0.1210
     47 H21        -1.9290   -0.0808   -0.8218 H         1 <0>         0.1512
     48 H22        -1.3635   -1.5983   -0.0831 H         1 <0>         0.1437
     49 H23        -1.5001   -0.5559    2.1627 H         1 <0>         0.1359
     50 H24        -2.0656    0.9616    1.4239 H         1 <0>         0.1268
     51 H25        -3.5022   -1.7937    3.1711 H         1 <0>         0.2433
     52 H26         0.4901   -0.3383    0.8195 H         1 <0>         0.4291
@<TRIPOS>BOND
     1    1    2 1
     2    1   27 1
     3    1   28 1
     4    1   29 1
     5    2    3 1
     6    2   20 1
     7    2   52 1
     8    3    4 1
     9    3   30 1
    10    3   31 1
    11    4    5 1
    12    4   32 1
    13    4   33 1
    14    5    6 1
    15    5   34 1
    16    5   35 1
    17    6    7 1
    18    7   12 ar
    19    7    8 ar
    20    8    9 ar
    21    8   36 1
    22    9   10 ar
    23    9   37 1
    24   10   11 ar
    25   10   13 1
    26   11   12 ar
    27   11   38 1
    28   12   39 1
    29   13   14 1
    30   13   40 1
    31   13   41 1
    32   14   19 ar
    33   14   15 ar
    34   15   16 ar
    35   15   42 1
    36   16   17 ar
    37   16   43 1
    38   17   18 ar
    39   17   44 1
    40   18   19 ar
    41   18   45 1
    42   19   46 1
    43   20   21 1
    44   20   47 1
    45   20   48 1
    46   21   22 1
    47   21   49 1
    48   21   50 1
    49   22   26 1
    50   22   23 1
    51   23   24 2
    52   23   51 1
    53   24   25 1
    54   25   26 2
@<TRIPOS>MOLECULE
CHEMBL118014__1
   51    53     0     0     0
SMALL
USER_CHARGES

@<TRIPOS>ATOM
      1 C1         -0.0178    1.4648    0.0101 C.3       1 <0>         0.0096
      2 N1          0.0021   -0.0041    0.0020 N.3       1 <0>        -0.5364
      3 C2          0.7062   -0.5275    1.1802 C.3       1 <0>         0.0600
      4 C3         -0.0853   -0.1811    2.4430 C.3       1 <0>        -0.1160
      5 C4          0.6480   -0.7263    3.6701 C.3       1 <0>         0.0612
      6 O1         -0.0912   -0.4028    4.8495 O.3       1 <0>        -0.3141
      7 C5          0.4266   -0.8177    6.0355 C.ar      1 <0>         0.1275
      8 C6          1.6247   -1.5167    6.0640 C.ar      1 <0>        -0.2059
      9 C7          2.1493   -1.9369    7.2709 C.ar      1 <0>        -0.0732
     10 C8          1.4811   -1.6618    8.4497 C.ar      1 <0>        -0.1133
     11 C9          0.2867   -0.9657    8.4240 C.ar      1 <0>        -0.0734
     12 C10        -0.2389   -0.5380    7.2202 C.ar      1 <0>        -0.1486
     13 C11         2.0554   -2.1219    9.7649 C.3       1 <0>        -0.0388
     14 C12         2.9583   -1.0510   10.3208 C.ar      1 <0>        -0.0765
     15 C13         4.3017   -1.0419    9.9952 C.ar      1 <0>        -0.1158
     16 C14         5.1299   -0.0597   10.5051 C.ar      1 <0>        -0.1182
     17 C15         4.6147    0.9139   11.3403 C.ar      1 <0>        -0.1244
     18 C16         3.2711    0.9054   11.6653 C.ar      1 <0>        -0.1177
     19 C17         2.4420   -0.0744   11.1519 C.ar      1 <0>        -0.1152
     20 C18         0.5996   -0.5156   -1.2387 C.3       1 <0>         0.0409
     21 C19        -0.2998   -0.1573   -2.4234 C.3       1 <0>         0.1165
     22 N2          0.2960   -0.6675   -3.6607 N.pl3     1 <0>        -0.3099
     23 C20        -0.2970   -1.4742   -4.5602 C.2       1 <0>         0.1637
     24 N3          0.5804   -1.6876   -5.5102 N.2       1 <0>        -0.3058
     25 N4          1.6563   -1.0454   -5.2098 N.2       1 <0>        -0.0728
     26 N5          1.4859   -0.4234   -4.0956 N.2       1 <0>        -0.0939
     27 H1          1.0047    1.8421    0.0024 H         1 <0>         0.0346
     28 H2         -0.5450    1.8259   -0.8730 H         1 <0>         0.0719
     29 H3         -0.5280    1.8163    0.9069 H         1 <0>         0.0800
     30 H4          0.8004   -1.6101    1.0960 H         1 <0>         0.0812
     31 H5          1.6983   -0.0800    1.2392 H         1 <0>         0.0434
     32 H6         -0.1795    0.9015    2.5272 H         1 <0>         0.0771
     33 H7         -1.0775   -0.6287    2.3841 H         1 <0>         0.0857
     34 H8          0.7422   -1.8090    3.5859 H         1 <0>         0.0638
     35 H9          1.6402   -0.2788    3.7290 H         1 <0>         0.0615
     36 H10         2.1466   -1.7324    5.1434 H         1 <0>         0.1265
     37 H11         3.0819   -2.4811    7.2936 H         1 <0>         0.1235
     38 H12        -0.2334   -0.7524    9.3461 H         1 <0>         0.1285
     39 H13        -1.1696    0.0095    7.2009 H         1 <0>         0.1309
     40 H14         1.2449   -2.3146   10.4677 H         1 <0>         0.0824
     41 H15         2.6283   -3.0364    9.6112 H         1 <0>         0.0815
     42 H16         4.7043   -1.8025    9.3426 H         1 <0>         0.1196
     43 H17         6.1797   -0.0530   10.2512 H         1 <0>         0.1213
     44 H18         5.2619    1.6809   11.7393 H         1 <0>         0.1209
     45 H19         2.8685    1.6658   12.3181 H         1 <0>         0.1217
     46 H20         1.3916   -0.0789   11.4027 H         1 <0>         0.1207
     47 H21         1.5829   -0.0671   -1.3803 H         1 <0>         0.0585
     48 H22         0.7003   -1.5990   -1.1736 H         1 <0>         0.0866
     49 H23        -1.2831   -0.6058   -2.2818 H         1 <0>         0.1249
     50 H24        -0.4006    0.9261   -2.4884 H         1 <0>         0.1074
     51 H25        -1.3008   -1.8694   -4.5089 H         1 <0>         0.2363
@<TRIPOS>BOND
     1    1    2 1
     2    1   27 1
     3    1   28 1
     4    1   29 1
     5    2    3 1
     6    2   20 1
     7    3    4 1
     8    3   30 1
     9    3   31 1
    10    4    5 1
    11    4   32 1
    12    4   33 1
    13    5    6 1
    14    5   34 1
    15    5   35 1
    16    6    7 1
    17    7   12 ar
    18    7    8 ar
    19    8    9 ar
    20    8   36 1
    21    9   10 ar
    22    9   37 1
    23   10   11 ar
    24   10   13 1
    25   11   12 ar
    26   11   38 1
    27   12   39 1
    28   13   14 1
    29   13   40 1
    30   13   41 1
    31   14   19 ar
    32   14   15 ar
    33   15   16 ar
    34   15   42 1
    35   16   17 ar
    36   16   43 1
    37   17   18 ar
    38   17   44 1
    39   18   19 ar
    40   18   45 1
    41   19   46 1
    42   20   21 1
    43   20   47 1
    44   20   48 1
    45   21   22 1
    46   21   49 1
    47   21   50 1
    48   22   26 1
    49   22   23 1
    50   23   24 2
    51   23   51 1
    52   24   25 1
    53   25   26 2
@<TRIPOS>MOLECULE
CHEMBL162439
   47    49     0     0     0
SMALL
USER_CHARGES

@<TRIPOS>ATOM
      1 C1         -0.0167    1.3781    0.0096 C.ar      1 <0>        -0.1074
      2 C2          1.1709    2.0855    0.0021 C.ar      1 <0>        -0.1209
      3 C3          2.3773    1.4107   -0.0130 C.ar      1 <0>        -0.1006
      4 C4          2.3960    0.0285   -0.0201 C.ar      1 <0>        -0.1160
      5 C5          1.2084   -0.6789   -0.0117 C.ar      1 <0>        -0.1003
      6 C6          0.0021   -0.0041    0.0020 C.ar      1 <0>        -0.1205
      7 C7          3.7112   -0.7071   -0.0376 C.3       1 <0>         0.1667
      8 N1          4.1518   -0.9524    1.3379 N.pl3     1 <0>        -0.7401
      9 C8          5.3551   -1.6253    1.5776 C.ar      1 <0>         0.2031
     10 C9          6.1347   -2.0556    0.5121 C.ar      1 <0>        -0.1609
     11 C10         7.3224   -2.7192    0.7496 C.ar      1 <0>        -0.0877
     12 C11         7.7366   -2.9559    2.0520 C.ar      1 <0>         0.0464
     13 C12         6.9583   -2.5268    3.1169 C.ar      1 <0>        -0.1482
     14 C13         5.7732   -1.8580    2.8812 C.ar      1 <0>        -0.1592
     15 O1          8.9063   -3.6094    2.2850 O.3       1 <0>        -0.3312
     16 C14         9.2715   -3.8190    3.6506 C.3       1 <0>         0.0295
     17 C15        10.6064   -4.5640    3.7130 C.3       1 <0>         0.0039
     18 N2         11.6671   -3.7159    3.1528 N.4       1 <0>        -0.3949
     19 C16        11.9195   -2.5553    4.0446 C.3       1 <0>        -0.0100
     20 C17        13.3534   -2.1151    3.6564 C.3       1 <0>        -0.1448
     21 C18        14.0693   -3.4603    3.3957 C.3       1 <0>        -0.1450
     22 C19        12.9413   -4.4645    3.0948 C.3       1 <0>        -0.0087
     23 H1         -0.9591    1.9053    0.0259 H         1 <0>         0.1263
     24 H2          1.1563    3.1654    0.0076 H         1 <0>         0.1262
     25 H3          3.3051    1.9634   -0.0196 H         1 <0>         0.1229
     26 H4          1.2231   -1.7588   -0.0176 H         1 <0>         0.1233
     27 H5         -0.9258   -0.5567    0.0082 H         1 <0>         0.1264
     28 H6          3.5884   -1.6586   -0.5549 H         1 <0>         0.0702
     29 H7          4.4573   -0.1052   -0.5563 H         1 <0>         0.0699
     30 H8          3.6095   -0.6484    2.0824 H         1 <0>         0.4035
     31 H9          5.8121   -1.8717   -0.5021 H         1 <0>         0.1331
     32 H10         7.9286   -3.0543   -0.0790 H         1 <0>         0.1308
     33 H11         7.2814   -2.7118    4.1307 H         1 <0>         0.1247
     34 H12         5.1697   -1.5197    3.7105 H         1 <0>         0.1273
     35 H13         9.3689   -2.8563    4.1525 H         1 <0>         0.0816
     36 H14         8.5017   -4.4108    4.1459 H         1 <0>         0.1047
     37 H15        10.8415   -4.8021    4.7503 H         1 <0>         0.1465
     38 H16        10.5354   -5.4858    3.1357 H         1 <0>         0.1403
     39 H17        11.2051   -1.7561    3.8475 H         1 <0>         0.1336
     40 H18        11.8802   -2.8584    5.0909 H         1 <0>         0.1342
     41 H19        13.3383   -1.5049    2.7533 H         1 <0>         0.0982
     42 H20        13.8279   -1.5785    4.4779 H         1 <0>         0.1167
     43 H21        14.7372   -3.3736    2.5387 H         1 <0>         0.1052
     44 H22        14.6258   -3.7703    4.2802 H         1 <0>         0.1039
     45 H23        12.9406   -5.2573    3.8429 H         1 <0>         0.1309
     46 H24        13.0777   -4.8890    2.1001 H         1 <0>         0.1326
     47 H25        11.4082   -3.3977    2.2309 H         1 <0>         0.4340
@<TRIPOS>BOND
     1    1    6 ar
     2    1    2 ar
     3    1   23 1
     4    2    3 ar
     5    2   24 1
     6    3    4 ar
     7    3   25 1
     8    4    5 ar
     9    4    7 1
    10    5    6 ar
    11    5   26 1
    12    6   27 1
    13    7    8 1
    14    7   28 1
    15    7   29 1
    16    8    9 1
    17    8   30 1
    18    9   14 ar
    19    9   10 ar
    20   10   11 ar
    21   10   31 1
    22   11   12 ar
    23   11   32 1
    24   12   13 ar
    25   12   15 1
    26   13   14 ar
    27   13   33 1
    28   14   34 1
    29   15   16 1
    30   16   17 1
    31   16   35 1
    32   16   36 1
    33   17   18 1
    34   17   37 1
    35   17   38 1
    36   18   22 1
    37   18   19 1
    38   18   47 1
    39   19   20 1
    40   19   39 1
    41   19   40 1
    42   20   21 1
    43   20   41 1
    44   20   42 1
    45   21   22 1
    46   21   43 1
    47   21   44 1
    48   22   45 1
    49   22   46 1
@<TRIPOS>MOLECULE
CHEMBL162180
   47    49     0     0     0
SMALL
USER_CHARGES

@<TRIPOS>ATOM
      1 C1         -0.0167    1.3786    0.0096 C.ar      1 <0>        -0.1742
      2 C2          1.1695    2.0894    0.0021 C.ar      1 <0>        -0.0723
      3 C3          2.3774    1.4200   -0.0130 C.ar      1 <0>        -0.1942
      4 C4          2.3998    0.0311   -0.0206 C.ar      1 <0>         0.2090
      5 C5          1.2064   -0.6798   -0.0130 C.ar      1 <0>        -0.1974
      6 C6          0.0021   -0.0041    0.0020 C.ar      1 <0>        -0.0722
      7 N1          3.6196   -0.6492   -0.0363 N.pl3     1 <0>        -0.7483
      8 C7          3.6414   -2.1140   -0.0443 C.3       1 <0>         0.1669
      9 C8          5.0695   -2.5950   -0.0611 C.ar      1 <0>        -0.1255
     10 C9          5.7134   -2.8036   -1.2667 C.ar      1 <0>        -0.0580
     11 C10         7.0223   -3.2449   -1.2847 C.ar      1 <0>        -0.1434
     12 C11         7.6908   -3.4786   -0.0918 C.ar      1 <0>         0.1183
     13 C12         7.0426   -3.2681    1.1166 C.ar      1 <0>        -0.2036
     14 C13         5.7354   -2.8217    1.1293 C.ar      1 <0>        -0.0581
     15 O1          8.9784   -3.9132   -0.1068 O.3       1 <0>        -0.3248
     16 C14         9.6038   -4.1328    1.1591 C.3       1 <0>         0.0277
     17 C15        11.0392   -4.6161    0.9418 C.3       1 <0>         0.0011
     18 N2         11.8225   -3.5515    0.3007 N.4       1 <0>        -0.3913
     19 C16        11.3043   -3.3040   -1.0616 C.3       1 <0>        -0.0014
     20 C17        12.5599   -2.9827   -1.9101 C.3       1 <0>        -0.1458
     21 C18        13.6072   -3.9505   -1.2990 C.3       1 <0>        -0.1421
     22 C19        13.2335   -3.9668    0.1981 C.3       1 <0>        -0.0135
     23 H1         -0.9598    1.9046    0.0260 H         1 <0>         0.1202
     24 H2          1.1513    3.1692    0.0077 H         1 <0>         0.1221
     25 H3          3.3034    1.9757   -0.0192 H         1 <0>         0.1173
     26 H4          1.2204   -1.7597   -0.0193 H         1 <0>         0.1188
     27 H5         -0.9261   -0.5561    0.0079 H         1 <0>         0.1220
     28 H6          4.4523   -0.1517   -0.0419 H         1 <0>         0.3980
     29 H7          3.1419   -2.4897    0.8486 H         1 <0>         0.0696
     30 H8          3.1243   -2.4802   -0.9312 H         1 <0>         0.0706
     31 H9          5.1926   -2.6215   -2.1951 H         1 <0>         0.1375
     32 H10         7.5247   -3.4083   -2.2267 H         1 <0>         0.1346
     33 H11         7.5609   -3.4493    2.0467 H         1 <0>         0.1292
     34 H12         5.2317   -2.6536    2.0698 H         1 <0>         0.1325
     35 H13         9.6158   -3.2012    1.7249 H         1 <0>         0.0860
     36 H14         9.0464   -4.8876    1.7137 H         1 <0>         0.1095
     37 H15        11.4871   -4.8682    1.9030 H         1 <0>         0.1495
     38 H16        11.0325   -5.4981    0.3015 H         1 <0>         0.1407
     39 H17        10.8048   -4.1937   -1.4450 H         1 <0>         0.1374
     40 H18        10.6206   -2.4552   -1.0592 H         1 <0>         0.1336
     41 H19        12.3879   -3.2076   -2.9627 H         1 <0>         0.1163
     42 H20        12.8645   -1.9444   -1.7790 H         1 <0>         0.0970
     43 H21        13.5100   -4.9464   -1.7313 H         1 <0>         0.0987
     44 H22        14.6168   -3.5648   -1.4401 H         1 <0>         0.1127
     45 H23        13.8664   -3.2685    0.7459 H         1 <0>         0.1327
     46 H24        13.3540   -4.9730    0.5995 H         1 <0>         0.1319
     47 H25        11.7565   -2.7050    0.8459 H         1 <0>         0.4245
@<TRIPOS>BOND
     1    1    6 ar
     2    1    2 ar
     3    1   23 1
     4    2    3 ar
     5    2   24 1
     6    3    4 ar
     7    3   25 1
     8    4    5 ar
     9    4    7 1
    10    5    6 ar
    11    5   26 1
    12    6   27 1
    13    7    8 1
    14    7   28 1
    15    8    9 1
    16    8   29 1
    17    8   30 1
    18    9   14 ar
    19    9   10 ar
    20   10   11 ar
    21   10   31 1
    22   11   12 ar
    23   11   32 1
    24   12   13 ar
    25   12   15 1
    26   13   14 ar
    27   13   33 1
    28   14   34 1
    29   15   16 1
    30   16   17 1
    31   16   35 1
    32   16   36 1
    33   17   18 1
    34   17   37 1
    35   17   38 1
    36   18   22 1
    37   18   19 1
    38   18   47 1
    39   19   20 1
    40   19   39 1
    41   19   40 1
    42   20   21 1
    43   20   41 1
    44   20   42 1
    45   21   22 1
    46   21   43 1
    47   21   44 1
    48   22   45 1
    49   22   46 1
@<TRIPOS>MOLECULE
CHEMBL93
   28    29     0     0     0
SMALL
USER_CHARGES

@<TRIPOS>ATOM
      1 C1         -0.0186    1.5046    0.0440 C.3       1 <0>        -0.1709
      2 C2          0.0042   -0.0249    0.0108 C.3       1 <0>         0.2735
      3 C3          0.7360   -0.5428    1.2221 C.2       1 <0>        -0.1564
      4 C4          0.2184   -1.0294    2.3592 C.2       1 <0>        -0.1274
      5 C5          1.1139   -1.4808    3.4141 C.ar      1 <0>        -0.0958
      6 C6          0.7889   -2.0224    4.6805 C.ar      1 <0>        -0.0757
      7 C7          1.7665   -2.3931    5.5493 C.ar      1 <0>        -0.1272
      8 C8          3.1112   -2.2562    5.2307 C.ar      1 <0>        -0.0969
      9 C9          3.4696   -1.7325    4.0046 C.ar      1 <0>        -0.0796
     10 C10         2.4875   -1.3527    3.1149 C.ar      1 <0>        -0.1505
     11 S1          2.4957   -0.6614    1.4810 S.3       1 <0>         0.1240
     12 N1          0.6882   -0.4769   -1.2033 N.am      1 <0>        -0.4864
     13 C11         1.9711   -0.1273   -1.4238 C.2       1 <0>         0.6951
     14 O1          2.5276    0.6488   -0.6713 O.2       1 <0>        -0.5429
     15 N2          2.6370   -0.6381   -2.4784 N.am      1 <0>        -0.8624
     16 O2          0.0016   -1.2810   -2.1451 O.3       1 <0>        -0.3239
     17 H1          1.0035    1.8833    0.0404 H         1 <0>         0.0910
     18 H2         -0.5479    1.8792   -0.8322 H         1 <0>         0.0692
     19 H3         -0.5275    1.8409    0.9473 H         1 <0>         0.0788
     20 H4         -1.0179   -0.4036    0.0144 H         1 <0>         0.1201
     21 H5         -0.8520   -1.0855    2.4912 H         1 <0>         0.1354
     22 H6         -0.2474   -2.1420    4.9601 H         1 <0>         0.1229
     23 H7          1.4911   -2.8034    6.5096 H         1 <0>         0.1257
     24 H8          3.8709   -2.5569    5.9369 H         1 <0>         0.1321
     25 H9          4.5119   -1.6204    3.7447 H         1 <0>         0.1284
     26 H10         2.1731   -1.1992   -3.1193 H         1 <0>         0.3940
     27 H11         3.5801   -0.4445   -2.5964 H         1 <0>         0.4238
     28 H12         0.5557   -1.5940   -2.8731 H         1 <0>         0.3820
@<TRIPOS>BOND
     1    1    2 1
     2    1   17 1
     3    1   18 1
     4    1   19 1
     5    2    3 1
     6    2   12 1
     7    2   20 1
     8    3   11 1
     9    3    4 2
    10    4    5 1
    11    4   21 1
    12    5   10 ar
    13    5    6 ar
    14    6    7 ar
    15    6   22 1
    16    7    8 ar
    17    7   23 1
    18    8    9 ar
    19    8   24 1
    20    9   10 ar
    21    9   25 1
    22   10   11 1
    23   12   13 am
    24   12   16 1
    25   13   14 2
    26   13   15 am
    27   15   26 1
    28   15   27 1
    29   16   28 1
@<TRIPOS>MOLECULE
CHEMBL93__1
   28    29     0     0     0
SMALL
USER_CHARGES

@<TRIPOS>ATOM
      1 C1          0.0000    1.4808   -0.0563 C.3       1 <0>        -0.1695
      2 C2          0.0160   -0.0482   -0.0032 C.3       1 <0>         0.2729
      3 C3          0.7171   -0.5859   -1.2240 C.2       1 <0>        -0.1616
      4 C4          0.1711   -1.0748   -2.3467 C.2       1 <0>        -0.1278
      5 C5          1.0398   -1.5461   -3.4153 C.ar      1 <0>        -0.0971
      6 C6          0.6830   -2.0941   -4.6702 C.ar      1 <0>        -0.0766
      7 C7          1.6385   -2.4860   -5.5542 C.ar      1 <0>        -0.1290
      8 C8          2.9908   -2.3649   -5.2627 C.ar      1 <0>        -0.0984
      9 C9          3.3800   -1.8346   -4.0489 C.ar      1 <0>        -0.0799
     10 C10         2.4205   -1.4334   -3.1440 C.ar      1 <0>        -0.1643
     11 S1          2.4698   -0.7160   -1.5221 S.3       1 <0>         0.1509
     12 N1          0.7256   -0.4876    1.2008 N.am      1 <0>        -0.4849
     13 C11         2.0149   -0.1419    1.3870 C.2       1 <0>         0.6945
     14 O1          2.6042    0.4908    0.5322 O.2       1 <0>        -0.5396
     15 N2          2.6509   -0.4975    2.5208 N.am      1 <0>        -0.8612
     16 O2          0.0570   -1.2757    2.1687 O.3       1 <0>        -0.3232
     17 H1          1.0237    1.8542   -0.0813 H         1 <0>         0.0856
     18 H2         -0.5280    1.8078   -0.9520 H         1 <0>         0.0811
     19 H3         -0.5071    1.8697    0.8267 H         1 <0>         0.0695
     20 H4         -1.0078   -0.4216    0.0218 H         1 <0>         0.1204
     21 H5         -0.9024   -1.1187   -2.4569 H         1 <0>         0.1335
     22 H6         -0.3600   -2.2026   -4.9285 H         1 <0>         0.1215
     23 H7          1.3390   -2.9015   -6.5050 H         1 <0>         0.1244
     24 H8          3.7326   -2.6836   -5.9800 H         1 <0>         0.1307
     25 H9          4.4285   -1.7353   -3.8098 H         1 <0>         0.1271
     26 H10         2.2051   -1.0642    3.1697 H         1 <0>         0.3945
     27 H11         3.5545   -0.1868    2.6879 H         1 <0>         0.4243
     28 H12         0.5803   -1.4510    2.9628 H         1 <0>         0.3824
@<TRIPOS>BOND
     1    1    2 1
     2    1   17 1
     3    1   18 1
     4    1   19 1
     5    2    3 1
     6    2   12 1
     7    2   20 1
     8    3   11 1
     9    3    4 2
    10    4    5 1
    11    4   21 1
    12    5   10 ar
    13    5    6 ar
    14    6    7 ar
    15    6   22 1
    16    7    8 ar
    17    7   23 1
    18    8    9 ar
    19    8   24 1
    20    9   10 ar
    21    9   25 1
    22   10   11 1
    23   12   13 am
    24   12   16 1
    25   13   14 2
    26   13   15 am
    27   15   26 1
    28   15   27 1
    29   16   28 1
@<TRIPOS>MOLECULE
CHEMBL350586
   50    53     0     0     0
SMALL
USER_CHARGES

@<TRIPOS>ATOM
      1 C1         -0.3968    1.1012    0.1517 C.ar      1 <0>        -0.1207
      2 C2          0.8003    1.7815    0.0299 C.ar      1 <0>        -0.1165
      3 C3          1.9909    1.0812   -0.0249 C.ar      1 <0>        -0.1151
      4 C4          1.9843   -0.2995    0.0424 C.ar      1 <0>        -0.0817
      5 C5          0.7873   -0.9798    0.1651 C.ar      1 <0>        -0.1160
      6 C6         -0.4034   -0.2796    0.2186 C.ar      1 <0>        -0.1173
      7 C7          3.2822   -1.0630   -0.0184 C.3       1 <0>        -0.0444
      8 C8          3.8214   -1.2490    1.3765 C.ar      1 <0>        -0.0918
      9 C9          4.6661   -0.3000    1.9221 C.ar      1 <0>        -0.0722
     10 C10         5.1621   -0.4684    3.2004 C.ar      1 <0>        -0.1376
     11 C11         4.8116   -1.5905    3.9370 C.ar      1 <0>         0.1078
     12 C12         3.9636   -2.5410    3.3874 C.ar      1 <0>        -0.1990
     13 C13         3.4661   -2.3654    2.1107 C.ar      1 <0>        -0.0729
     14 O1          5.2986   -1.7587    5.1945 O.3       1 <0>        -0.3284
     15 C14         4.8955   -2.9377    5.8941 C.3       1 <0>         0.0272
     16 C15         5.5391   -2.9523    7.2821 C.3       1 <0>        -0.0075
     17 N1          5.0368   -1.8166    8.0668 N.4       1 <0>        -0.3784
     18 C16         5.7784   -1.7385    9.3283 C.3       1 <0>        -0.0064
     19 C17         4.8186   -1.8519   10.5198 C.3       1 <0>        -0.0846
     20 C18         4.1122   -3.2143   10.4291 C.3       1 <0>        -0.1294
     21 C19         3.3869   -3.3041    9.0823 C.3       1 <0>        -0.1428
     22 C20         3.5990   -1.9960    8.3082 C.3       1 <0>         0.0531
     23 C21         3.1151   -0.8519    9.1863 C.2       1 <0>        -0.1948
     24 C22         3.7546   -0.7741   10.3534 C.2       1 <0>        -0.1098
     25 H1         -1.3266    1.6485    0.1990 H         1 <0>         0.1231
     26 H2          0.8055    2.8603   -0.0227 H         1 <0>         0.1236
     27 H3          2.9261    1.6128   -0.1208 H         1 <0>         0.1209
     28 H4          0.7821   -2.0585    0.2174 H         1 <0>         0.1197
     29 H5         -1.3387   -0.8111    0.3140 H         1 <0>         0.1230
     30 H6          3.1091   -2.0380   -0.4740 H         1 <0>         0.0856
     31 H7          4.0039   -0.5058   -0.6156 H         1 <0>         0.0866
     32 H8          4.9387    0.5734    1.3483 H         1 <0>         0.1348
     33 H9          5.8225    0.2728    3.6259 H         1 <0>         0.1328
     34 H10         3.6893   -3.4155    3.9588 H         1 <0>         0.1266
     35 H11         2.8023   -3.1029    1.6841 H         1 <0>         0.1297
     36 H12         3.8103   -2.9461    5.9967 H         1 <0>         0.0850
     37 H13         5.2145   -3.8181    5.3363 H         1 <0>         0.1090
     38 H14         5.2878   -3.8838    7.7893 H         1 <0>         0.1511
     39 H15         6.6216   -2.8740    7.1814 H         1 <0>         0.1442
     40 H16         6.5038   -2.5509    9.3711 H         1 <0>         0.1364
     41 H17         6.3048   -0.7854    9.3788 H         1 <0>         0.1339
     42 H18         5.3507   -1.7347   11.4639 H         1 <0>         0.1336
     43 H19         4.8495   -4.0138   10.5012 H         1 <0>         0.0902
     44 H20         3.3898   -3.3061   11.2401 H         1 <0>         0.0961
     45 H21         3.7895   -4.1375    8.5066 H         1 <0>         0.0920
     46 H22         2.3213   -3.4584    9.2520 H         1 <0>         0.1131
     47 H23         3.0571   -2.0235    7.3628 H         1 <0>         0.1447
     48 H24         2.3306   -0.1700    8.8932 H         1 <0>         0.1571
     49 H25         3.5411   -0.0256   11.1021 H         1 <0>         0.1536
     50 H26         5.1811   -0.9648    7.5456 H         1 <0>         0.4330
@<TRIPOS>BOND
     1    1    6 ar
     2    1    2 ar
     3    1   25 1
     4    2    3 ar
     5    2   26 1
     6    3    4 ar
     7    3   27 1
     8    4    5 ar
     9    4    7 1
    10    5    6 ar
    11    5   28 1
    12    6   29 1
    13    7    8 1
    14    7   30 1
    15    7   31 1
    16    8   13 ar
    17    8    9 ar
    18    9   10 ar
    19    9   32 1
    20   10   11 ar
    21   10   33 1
    22   11   12 ar
    23   11   14 1
    24   12   13 ar
    25   12   34 1
    26   13   35 1
    27   14   15 1
    28   15   16 1
    29   15   36 1
    30   15   37 1
    31   16   17 1
    32   16   38 1
    33   16   39 1
    34   17   22 1
    35   17   18 1
    36   17   50 1
    37   18   19 1
    38   18   40 1
    39   18   41 1
    40   19   24 1
    41   19   20 1
    42   19   42 1
    43   20   21 1
    44   20   43 1
    45   20   44 1
    46   21   22 1
    47   21   45 1
    48   21   46 1
    49   22   23 1
    50   22   47 1
    51   23   24 2
    52   23   48 1
    53   24   49 1
@<TRIPOS>MOLECULE
CHEMBL350586__1
   50    53     0     0     0
SMALL
USER_CHARGES

@<TRIPOS>ATOM
      1 C1         -0.3161    1.1603    0.1189 C.ar      1 <0>        -0.1208
      2 C2          0.8849    1.8363    0.0111 C.ar      1 <0>        -0.1165
      3 C3          2.0730    1.1313   -0.0365 C.ar      1 <0>        -0.1151
      4 C4          2.0602   -0.2497    0.0240 C.ar      1 <0>        -0.0817
      5 C5          0.8593   -0.9256    0.1327 C.ar      1 <0>        -0.1159
      6 C6         -0.3289   -0.2207    0.1789 C.ar      1 <0>        -0.1173
      7 C7          3.3553   -1.0183   -0.0289 C.3       1 <0>        -0.0445
      8 C8          3.8813   -1.2133    1.3698 C.ar      1 <0>        -0.0919
      9 C9          4.7250   -0.2705    1.9275 C.ar      1 <0>        -0.0723
     10 C10         5.2089   -0.4471    3.2094 C.ar      1 <0>        -0.1379
     11 C11         4.8472   -1.5714    3.9373 C.ar      1 <0>         0.1079
     12 C12         4.0001   -2.5156    3.3756 C.ar      1 <0>        -0.1989
     13 C13         3.5148   -2.3318    2.0953 C.ar      1 <0>        -0.0729
     14 O1          5.3222   -1.7476    5.1983 O.3       1 <0>        -0.3293
     15 C14         4.9080   -2.9283    5.8885 C.3       1 <0>         0.0281
     16 C15         5.5391   -2.9523    7.2821 C.3       1 <0>        -0.0007
     17 N1          5.0368   -1.8166    8.0668 N.4       1 <0>        -0.3784
     18 C16         5.7784   -1.7385    9.3283 C.3       1 <0>        -0.0062
     19 C17         4.8227   -1.8856   10.5195 C.3       1 <0>        -0.0845
     20 C18         3.8069   -0.7336   10.4550 C.3       1 <0>        -0.1303
     21 C19         3.0781   -0.7945    9.1085 C.3       1 <0>        -0.1397
     22 C20         3.5990   -1.9960    8.3082 C.3       1 <0>         0.0529
     23 C21         3.4091   -3.2411    9.1614 C.2       1 <0>        -0.1978
     24 C22         4.0513   -3.1855   10.3282 C.2       1 <0>        -0.1086
     25 H1         -1.2440    1.7113    0.1606 H         1 <0>         0.1231
     26 H2          0.8949    2.9152   -0.0362 H         1 <0>         0.1236
     27 H3          3.0113    1.6594   -0.1215 H         1 <0>         0.1209
     28 H4          0.8492   -2.0046    0.1797 H         1 <0>         0.1197
     29 H5         -1.2672   -0.7488    0.2635 H         1 <0>         0.1230
     30 H6          3.1824   -1.9903   -0.4908 H         1 <0>         0.0856
     31 H7          4.0847   -0.4612   -0.6170 H         1 <0>         0.0866
     32 H8          5.0063    0.6046    1.3604 H         1 <0>         0.1348
     33 H9          5.8684    0.2892    3.6443 H         1 <0>         0.1327
     34 H10         3.7172   -3.3917    3.9402 H         1 <0>         0.1267
     35 H11         2.8519   -3.0644    1.6592 H         1 <0>         0.1297
     36 H12         3.8219   -2.9327    5.9814 H         1 <0>         0.0850
     37 H13         5.2284   -3.8073    5.3293 H         1 <0>         0.1085
     38 H14         5.2775   -3.8843    7.7833 H         1 <0>         0.1488
     39 H15         6.6229   -2.8803    7.1914 H         1 <0>         0.1423
     40 H16         6.5203   -2.5364    9.3605 H         1 <0>         0.1331
     41 H17         6.2854   -0.7756    9.3896 H         1 <0>         0.1373
     42 H18         5.3697   -1.8897   11.4623 H         1 <0>         0.1332
     43 H19         3.0859   -0.8362   11.2659 H         1 <0>         0.0952
     44 H20         4.3287    0.2192   10.5454 H         1 <0>         0.0910
     45 H21         2.0073   -0.9067    9.2786 H         1 <0>         0.1125
     46 H22         3.2652    0.1233    8.5510 H         1 <0>         0.0928
     47 H23         3.0642   -2.0813    7.3622 H         1 <0>         0.1445
     48 H24         2.8127   -4.0868    8.8522 H         1 <0>         0.1569
     49 H25         4.0270   -3.9784   11.0611 H         1 <0>         0.1535
     50 H26         5.1811   -0.9648    7.5456 H         1 <0>         0.4316
@<TRIPOS>BOND
     1    1    6 ar
     2    1    2 ar
     3    1   25 1
     4    2    3 ar
     5    2   26 1
     6    3    4 ar
     7    3   27 1
     8    4    5 ar
     9    4    7 1
    10    5    6 ar
    11    5   28 1
    12    6   29 1
    13    7    8 1
    14    7   30 1
    15    7   31 1
    16    8   13 ar
    17    8    9 ar
    18    9   10 ar
    19    9   32 1
    20   10   11 ar
    21   10   33 1
    22   11   12 ar
    23   11   14 1
    24   12   13 ar
    25   12   34 1
    26   13   35 1
    27   14   15 1
    28   15   16 1
    29   15   36 1
    30   15   37 1
    31   16   17 1
    32   16   38 1
    33   16   39 1
    34   17   22 1
    35   17   18 1
    36   17   50 1
    37   18   19 1
    38   18   40 1
    39   18   41 1
    40   19   24 1
    41   19   20 1
    42   19   42 1
    43   20   21 1
    44   20   43 1
    45   20   44 1
    46   21   22 1
    47   21   45 1
    48   21   46 1
    49   22   23 1
    50   22   47 1
    51   23   24 2
    52   23   48 1
    53   24   49 1
@<TRIPOS>MOLECULE
CHEMBL479360
   61    64     0     0     0
SMALL
USER_CHARGES

@<TRIPOS>ATOM
      1 C1          0.8014   -0.7481   -1.2244 C.3       1 <0>        -0.0563
      2 N1          0.5562   -2.1673   -1.5138 N.4       1 <0>        -0.3840
      3 C2         -0.8737   -2.4608   -1.3485 C.3       1 <0>        -0.0051
      4 C3         -1.6772   -1.6892   -2.3972 C.3       1 <0>        -0.1625
      5 C4         -3.1665   -1.9948   -2.2250 C.3       1 <0>         0.1330
      6 N2         -3.9359   -1.2560   -3.2292 N.pl3     1 <0>        -0.7537
      7 C5         -5.3293   -1.3759   -3.2705 C.ar      1 <0>         0.1802
      8 C6         -5.9838   -2.1908   -2.3561 C.ar      1 <0>        -0.1564
      9 C7         -7.3591   -2.3084   -2.3971 C.ar      1 <0>        -0.1451
     10 C8         -8.0869   -1.6127   -3.3515 C.ar      1 <0>         0.0737
     11 C9         -7.4337   -0.7988   -4.2656 C.ar      1 <0>        -0.0936
     12 C10        -6.0590   -0.6757   -4.2222 C.ar      1 <0>        -0.1505
     13 O1         -9.4411   -1.7289   -3.3913 O.3       1 <0>        -0.2606
     14 C11       -10.0395   -2.5300   -2.4724 C.ar      1 <0>         0.1066
     15 C12       -10.4477   -2.0019   -1.2539 C.ar      1 <0>        -0.1273
     16 C13       -11.0549   -2.8116   -0.3187 C.ar      1 <0>        -0.0561
     17 C14       -11.2601   -4.1646   -0.5973 C.ar      1 <0>        -0.0168
     18 C15       -10.8488   -4.6915   -1.8233 C.ar      1 <0>        -0.0746
     19 C16       -10.2471   -3.8742   -2.7554 C.ar      1 <0>        -0.1270
     20 C17       -11.9103   -5.0362    0.4028 C.2       1 <0>         0.2265
     21 N3        -12.3434   -4.6585    1.5830 N.2       1 <0>        -0.4685
     22 C18       -12.8732   -5.7225    2.2062 C.2       1 <0>        -0.0382
     23 C19       -12.7605   -6.7805    1.3834 C.2       1 <0>        -0.0657
     24 O2        -12.1629   -6.3484    0.2548 O.3       1 <0>        -0.1967
     25 C20         1.3369   -2.9980   -0.5872 C.3       1 <0>         0.0526
     26 C21         2.8073   -2.7876   -0.8411 C.ar      1 <0>        -0.1838
     27 C22         3.4687   -3.5854   -1.7582 C.ar      1 <0>        -0.1089
     28 C23         4.8145   -3.3990   -1.9955 C.ar      1 <0>        -0.0848
     29 C24         5.5100   -2.4014   -1.3075 C.ar      1 <0>        -0.0886
     30 C25         4.8355   -1.5994   -0.3834 C.ar      1 <0>        -0.0850
     31 C26         3.4884   -1.7939   -0.1603 C.ar      1 <0>        -0.1116
     32 C27         6.9498   -2.1961   -1.5555 C.2       1 <0>         0.5087
     33 O3          7.5374   -2.9000   -2.3647 O.co2     1 <0>        -0.6717
     34 O4          7.5557   -1.3221   -0.9517 O.co2     1 <0>        -0.6719
     35 H1          1.8624   -0.5304   -1.3471 H         1 <0>         0.1305
     36 H2          0.2222   -0.1318   -1.9120 H         1 <0>         0.1196
     37 H3          0.5017   -0.5292   -0.1996 H         1 <0>         0.1207
     38 H4         -1.0422   -3.5301   -1.4760 H         1 <0>         0.1320
     39 H5         -1.1936   -2.1589   -0.3512 H         1 <0>         0.1314
     40 H6         -1.5087   -0.6198   -2.2697 H         1 <0>         0.0945
     41 H7         -1.3573   -1.9910   -3.3945 H         1 <0>         0.0936
     42 H8         -3.3350   -3.0641   -2.3526 H         1 <0>         0.0671
     43 H9         -3.4864   -1.6930   -1.2277 H         1 <0>         0.0671
     44 H10        -3.4793   -0.6836   -3.8655 H         1 <0>         0.4015
     45 H11        -5.4173   -2.7328   -1.6132 H         1 <0>         0.1226
     46 H12        -7.8682   -2.9424   -1.6863 H         1 <0>         0.1284
     47 H13        -8.0010   -0.2577   -5.0086 H         1 <0>         0.1358
     48 H14        -5.5510   -0.0386   -4.9311 H         1 <0>         0.1306
     49 H15       -10.2887   -0.9555   -1.0393 H         1 <0>         0.1421
     50 H16       -11.3713   -2.4006    0.6285 H         1 <0>         0.1473
     51 H17       -11.0055   -5.7374   -2.0422 H         1 <0>         0.1401
     52 H18        -9.9327   -4.2800   -3.7056 H         1 <0>         0.1408
     53 H19       -13.3117   -5.7282    3.1931 H         1 <0>         0.1897
     54 H20       -13.0907   -7.7883    1.5875 H         1 <0>         0.2210
     55 H21         1.1015   -2.7167    0.4393 H         1 <0>         0.1304
     56 H22         1.0878   -4.0477   -0.7424 H         1 <0>         0.1312
     57 H23         2.9298   -4.3562   -2.2892 H         1 <0>         0.1220
     58 H24         5.3296   -4.0228   -2.7110 H         1 <0>         0.1387
     59 H25         5.3668   -0.8264    0.1519 H         1 <0>         0.1387
     60 H26         2.9648   -1.1719    0.5506 H         1 <0>         0.1220
     61 H27         0.8337   -2.3700   -2.4625 H         1 <0>         0.4245
@<TRIPOS>BOND
     1    1    2 1
     2    1   35 1
     3    1   36 1
     4    1   37 1
     5    2    3 1
     6    2   25 1
     7    2   61 1
     8    3    4 1
     9    3   38 1
    10    3   39 1
    11    4    5 1
    12    4   40 1
    13    4   41 1
    14    5    6 1
    15    5   42 1
    16    5   43 1
    17    6    7 1
    18    6   44 1
    19    7   12 ar
    20    7    8 ar
    21    8    9 ar
    22    8   45 1
    23    9   10 ar
    24    9   46 1
    25   10   11 ar
    26   10   13 1
    27   11   12 ar
    28   11   47 1
    29   12   48 1
    30   13   14 1
    31   14   19 ar
    32   14   15 ar
    33   15   16 ar
    34   15   49 1
    35   16   17 ar
    36   16   50 1
    37   17   18 ar
    38   17   20 1
    39   18   19 ar
    40   18   51 1
    41   19   52 1
    42   20   24 1
    43   20   21 2
    44   21   22 1
    45   22   23 2
    46   22   53 1
    47   23   24 1
    48   23   54 1
    49   25   26 1
    50   25   55 1
    51   25   56 1
    52   26   31 ar
    53   26   27 ar
    54   27   28 ar
    55   27   57 1
    56   28   29 ar
    57   28   58 1
    58   29   30 ar
    59   29   32 1
    60   30   31 ar
    61   30   59 1
    62   31   60 1
    63   32   33 2
    64   32   34 1
@<TRIPOS>MOLECULE
CHEMBL14547
   43    46     0     0     0
SMALL
USER_CHARGES

@<TRIPOS>ATOM
      1 C1         -0.0167    1.3781    0.0096 C.ar      1 <0>        -0.1235
      2 C2          1.1709    2.0855    0.0021 C.ar      1 <0>        -0.1175
      3 C3          2.3773    1.4107   -0.0130 C.ar      1 <0>        -0.1152
      4 C4          2.3960    0.0285   -0.0201 C.ar      1 <0>        -0.0781
      5 C5          1.2084   -0.6789   -0.0117 C.ar      1 <0>        -0.1158
      6 C6          0.0021   -0.0041    0.0020 C.ar      1 <0>        -0.1177
      7 C7          3.7112   -0.7071   -0.0376 C.3       1 <0>        -0.0394
      8 C8          4.1644   -0.9594    1.3773 C.ar      1 <0>        -0.1077
      9 C9          4.9522   -0.0267    2.0264 C.ar      1 <0>        -0.0737
     10 C10         5.3694   -0.2559    3.3232 C.ar      1 <0>        -0.1443
     11 C11         4.9969   -1.4228    3.9745 C.ar      1 <0>         0.1238
     12 C12         4.2060   -2.3568    3.3213 C.ar      1 <0>        -0.2022
     13 C13         3.7871   -2.1206    2.0262 C.ar      1 <0>        -0.0728
     14 O1          5.4064   -1.6507    5.2502 O.3       1 <0>        -0.3215
     15 C14         4.9849   -2.8733    5.8582 C.3       1 <0>         0.0422
     16 C15         5.5391   -2.9523    7.2821 C.3       1 <0>         0.0828
     17 N1          4.9453   -1.8894    8.0969 N.pl3     1 <0>        -0.3991
     18 C16         5.5343   -0.6867    8.1704 C.2       1 <0>         0.3660
     19 N2          5.0386    0.2933    8.8868 N.2       1 <0>        -0.5148
     20 C17         3.9190    0.1588    9.5871 C.2       1 <0>         0.2549
     21 C18         3.2439   -1.0583    9.5653 C.2       1 <0>        -0.0603
     22 N3          2.1231   -1.5408   10.1304 N.2       1 <0>        -0.5118
     23 C19         1.9724   -2.7893    9.7437 C.2       1 <0>         0.2416
     24 N4          2.9656   -3.1462    8.9363 N.2       1 <0>        -0.5503
     25 C20         3.7822   -2.1159    8.7839 C.2       1 <0>         0.2306
     26 H1         -0.9591    1.9053    0.0259 H         1 <0>         0.1214
     27 H2          1.1563    3.1654    0.0076 H         1 <0>         0.1221
     28 H3          3.3051    1.9634   -0.0196 H         1 <0>         0.1207
     29 H4          1.2231   -1.7588   -0.0176 H         1 <0>         0.1197
     30 H5         -0.9258   -0.5567    0.0082 H         1 <0>         0.1217
     31 H6          3.5884   -1.6586   -0.5549 H         1 <0>         0.0824
     32 H7          4.4573   -0.1052   -0.5563 H         1 <0>         0.0834
     33 H8          5.2420    0.8815    1.5189 H         1 <0>         0.1302
     34 H9          5.9853    0.4726    3.8295 H         1 <0>         0.1320
     35 H10         3.9147   -3.2660    3.8262 H         1 <0>         0.1269
     36 H11         3.1678   -2.8454    1.5188 H         1 <0>         0.1252
     37 H12         3.8958   -2.9068    5.8898 H         1 <0>         0.0770
     38 H13         5.3576   -3.7160    5.2759 H         1 <0>         0.0937
     39 H14         5.2928   -3.9221    7.7145 H         1 <0>         0.1337
     40 H15         6.6219   -2.8297    7.2579 H         1 <0>         0.1210
     41 H16         6.4488   -0.5197    7.6208 H         1 <0>         0.2215
     42 H17         3.5361    0.9849   10.1680 H         1 <0>         0.1843
     43 H18         1.1575   -3.4327   10.0406 H         1 <0>         0.2069
@<TRIPOS>BOND
     1    1    6 ar
     2    1    2 ar
     3    1   26 1
     4    2    3 ar
     5    2   27 1
     6    3    4 ar
     7    3   28 1
     8    4    5 ar
     9    4    7 1
    10    5    6 ar
    11    5   29 1
    12    6   30 1
    13    7    8 1
    14    7   31 1
    15    7   32 1
    16    8   13 ar
    17    8    9 ar
    18    9   10 ar
    19    9   33 1
    20   10   11 ar
    21   10   34 1
    22   11   12 ar
    23   11   14 1
    24   12   13 ar
    25   12   35 1
    26   13   36 1
    27   14   15 1
    28   15   16 1
    29   15   37 1
    30   15   38 1
    31   16   17 1
    32   16   39 1
    33   16   40 1
    34   17   25 1
    35   17   18 1
    36   18   19 2
    37   18   41 1
    38   19   20 1
    39   20   21 2
    40   20   42 1
    41   21   25 1
    42   21   22 1
    43   22   23 2
    44   23   24 1
    45   23   43 1
    46   24   25 2
@<TRIPOS>MOLECULE
CHEMBL480909
   66    69     0     0     0
SMALL
USER_CHARGES

@<TRIPOS>ATOM
      1 C1         -0.7100   -2.4747   -1.4170 C.3       1 <0>         0.0116
      2 N1          0.6627   -1.9668   -1.2915 N.3       1 <0>        -0.5253
      3 C2          1.2445   -2.3371    0.0056 C.3       1 <0>         0.1082
      4 C3          1.4083   -3.8336    0.0738 C.ar      1 <0>        -0.1117
      5 C4          0.3792   -4.6172    0.5656 C.ar      1 <0>        -0.1293
      6 C5          0.5222   -5.9874    0.6314 C.ar      1 <0>        -0.0863
      7 C6          1.7095   -6.5840    0.1996 C.ar      1 <0>        -0.1182
      8 C7          2.7441   -5.7865   -0.2961 C.ar      1 <0>        -0.0873
      9 C8          2.5850   -4.4180   -0.3609 C.ar      1 <0>        -0.1134
     10 C9          1.8702   -8.0490    0.2673 C.2       1 <0>         0.5139
     11 O1          0.9630   -8.7442    0.7022 O.co2     1 <0>        -0.6826
     12 O2          2.9107   -8.5681   -0.1114 O.co2     1 <0>        -0.6826
     13 C10         0.7062   -0.5122   -1.4919 C.3       1 <0>         0.0301
     14 C11         0.5211   -0.1964   -2.9775 C.3       1 <0>         0.0230
     15 C12         1.7083   -0.7605   -3.7860 C.3       1 <0>        -0.1179
     16 C13         1.9560    0.3365   -4.8548 C.3       1 <0>        -0.1449
     17 C14         1.6428    1.6269   -4.0571 C.3       1 <0>        -0.0065
     18 N2          0.5078    1.2637   -3.1820 N.4       1 <0>        -0.3717
     19 C15         0.6435    1.9454   -1.8879 C.3       1 <0>        -0.0376
     20 C16         0.5009    3.4325   -2.0861 C.2       1 <0>         0.5005
     21 O3          0.3055    3.8804   -3.1962 O.2       1 <0>        -0.5118
     22 N3          0.5905    4.2648   -1.0298 N.am      1 <0>        -0.6439
     23 C17         0.3741    5.6385   -1.2000 C.ar      1 <0>         0.0880
     24 C18         1.0940    6.5539   -0.4439 C.ar      1 <0>        -0.0902
     25 C19         0.8802    7.9076   -0.6120 C.ar      1 <0>        -0.1741
     26 C20        -0.0538    8.3532   -1.5362 C.ar      1 <0>         0.1282
     27 C21        -0.7735    7.4389   -2.2920 C.ar      1 <0>        -0.1279
     28 C22        -0.5564    6.0851   -2.1288 C.ar      1 <0>        -0.0736
     29 O4         -0.2643    9.6862   -1.7010 O.3       1 <0>        -0.2541
     30 C23         0.5417   10.5474   -1.0265 C.ar      1 <0>         0.0748
     31 C24         1.8323   10.7883   -1.4760 C.ar      1 <0>        -0.1317
     32 C25         2.6496   11.6642   -0.7884 C.ar      1 <0>        -0.1046
     33 C26         2.1830   12.3005    0.3471 C.ar      1 <0>        -0.1136
     34 C27         0.8974   12.0623    0.7972 C.ar      1 <0>        -0.1038
     35 C28         0.0739   11.1920    0.1098 C.ar      1 <0>        -0.1205
     36 H1         -1.3061   -2.1225   -0.5751 H         1 <0>         0.0349
     37 H2         -1.1472   -2.1139   -2.3480 H         1 <0>         0.0623
     38 H3         -0.6952   -3.5646   -1.4209 H         1 <0>         0.0929
     39 H4          2.2180   -1.8596    0.1167 H         1 <0>         0.0821
     40 H5          0.5842   -2.0069    0.8075 H         1 <0>         0.0462
     41 H6         -0.5381   -4.1547    0.8990 H         1 <0>         0.1085
     42 H7         -0.2816   -6.5977    1.0161 H         1 <0>         0.1274
     43 H8          3.6646   -6.2409   -0.6316 H         1 <0>         0.1277
     44 H9          3.3821   -3.8007   -0.7479 H         1 <0>         0.1116
     45 H10        -0.0927   -0.0423   -0.9183 H         1 <0>         0.0563
     46 H11         1.6693   -0.1278   -1.1560 H         1 <0>         0.0961
     47 H12        -0.4131   -0.6294   -3.3349 H         1 <0>         0.1432
     48 H13         2.5846   -0.8831   -3.1494 H         1 <0>         0.1029
     49 H14         1.4387   -1.7050   -4.2585 H         1 <0>         0.1177
     50 H15         2.9928    0.3272   -5.1909 H         1 <0>         0.1169
     51 H16         1.2732    0.2225   -5.6968 H         1 <0>         0.0978
     52 H17         2.5046    1.9214   -3.4582 H         1 <0>         0.1257
     53 H18         1.3574    2.4318   -4.7344 H         1 <0>         0.1425
     54 H19        -0.1328    1.5933   -1.2086 H         1 <0>         0.1644
     55 H20         1.6236    1.7278   -1.4636 H         1 <0>         0.1626
     56 H21         0.8049    3.9127   -0.1517 H         1 <0>         0.4193
     57 H22         1.8208    6.2072    0.2758 H         1 <0>         0.1340
     58 H23         1.4398    8.6198   -0.0237 H         1 <0>         0.1381
     59 H24        -1.5004    7.7863   -3.0113 H         1 <0>         0.1415
     60 H25        -1.1135    5.3736   -2.7203 H         1 <0>         0.1411
     61 H26         2.1974   10.2910   -2.3624 H         1 <0>         0.1302
     62 H27         3.6541   11.8520   -1.1378 H         1 <0>         0.1325
     63 H28         2.8239   12.9844    0.8836 H         1 <0>         0.1315
     64 H29         0.5355   12.5603    1.6845 H         1 <0>         0.1342
     65 H30        -0.9317   11.0096    0.4592 H         1 <0>         0.1333
     66 H31        -0.3593    1.5374   -3.6194 H         1 <0>         0.4316
@<TRIPOS>BOND
     1    1    2 1
     2    1   36 1
     3    1   37 1
     4    1   38 1
     5    2    3 1
     6    2   13 1
     7    3    4 1
     8    3   39 1
     9    3   40 1
    10    4    9 ar
    11    4    5 ar
    12    5    6 ar
    13    5   41 1
    14    6    7 ar
    15    6   42 1
    16    7    8 ar
    17    7   10 1
    18    8    9 ar
    19    8   43 1
    20    9   44 1
    21   10   11 2
    22   10   12 1
    23   13   14 1
    24   13   45 1
    25   13   46 1
    26   14   18 1
    27   14   15 1
    28   14   47 1
    29   15   16 1
    30   15   48 1
    31   15   49 1
    32   16   17 1
    33   16   50 1
    34   16   51 1
    35   17   18 1
    36   17   52 1
    37   17   53 1
    38   18   19 1
    39   18   66 1
    40   19   20 1
    41   19   54 1
    42   19   55 1
    43   20   21 2
    44   20   22 am
    45   22   23 1
    46   22   56 1
    47   23   28 ar
    48   23   24 ar
    49   24   25 ar
    50   24   57 1
    51   25   26 ar
    52   25   58 1
    53   26   27 ar
    54   26   29 1
    55   27   28 ar
    56   27   59 1
    57   28   60 1
    58   29   30 1
    59   30   35 ar
    60   30   31 ar
    61   31   32 ar
    62   31   61 1
    63   32   33 ar
    64   32   62 1
    65   33   34 ar
    66   33   63 1
    67   34   35 ar
    68   34   64 1
    69   35   65 1
@<TRIPOS>MOLECULE
CHEMBL480909__1
   66    69     0     0     0
SMALL
USER_CHARGES

@<TRIPOS>ATOM
      1 C1          1.9604   -2.3593    0.2592 C.3       1 <0>        -0.0562
      2 N1          0.9399   -1.9362    1.2275 N.4       1 <0>        -0.3817
      3 C2         -0.3856   -2.3633    0.7600 C.3       1 <0>         0.0521
      4 C3         -0.4515   -3.8688    0.7437 C.ar      1 <0>        -0.1836
      5 C4         -0.0755   -4.5621   -0.3934 C.ar      1 <0>        -0.1104
      6 C5         -0.1335   -5.9399   -0.4158 C.ar      1 <0>        -0.0848
      7 C6         -0.5729   -6.6356    0.7135 C.ar      1 <0>        -0.0881
      8 C7         -0.9505   -5.9289    1.8580 C.ar      1 <0>        -0.0845
      9 C8         -0.8823   -4.5514    1.8677 C.ar      1 <0>        -0.1089
     10 C9         -0.6383   -8.1094    0.6971 C.2       1 <0>         0.5086
     11 O1         -0.3075   -8.7251   -0.3064 O.co2     1 <0>        -0.6717
     12 O2         -1.0233   -8.7154    1.6871 O.co2     1 <0>        -0.6718
     13 C10         0.9652   -0.4732    1.3577 C.3       1 <0>        -0.0368
     14 C11         2.2856   -0.0410    1.9987 C.3       1 <0>         0.0520
     15 C12         2.3740   -0.5884    3.4388 C.3       1 <0>        -0.1624
     16 C13         3.0471    0.5746    4.2141 C.3       1 <0>        -0.1254
     17 C14         2.4381    1.8132    3.5108 C.3       1 <0>         0.0403
     18 N2          2.3429    1.4297    2.0861 N.3       1 <0>        -0.4887
     19 C15         1.1663    2.0410    1.4539 C.3       1 <0>         0.0157
     20 C16         1.3491    3.5356    1.3915 C.2       1 <0>         0.5107
     21 O3          2.3602    4.0417    1.8305 O.2       1 <0>        -0.4924
     22 N3          0.3892    4.3098    0.8478 N.am      1 <0>        -0.6713
     23 C17         0.6167    5.6793    0.6599 C.ar      1 <0>         0.1085
     24 C18        -0.4355    6.5791    0.7659 C.ar      1 <0>        -0.1039
     25 C19        -0.2107    7.9288    0.5805 C.ar      1 <0>        -0.1732
     26 C20         1.0663    8.3859    0.2883 C.ar      1 <0>         0.1147
     27 C21         2.1181    7.4872    0.1822 C.ar      1 <0>        -0.1246
     28 C22         1.8955    6.1380    0.3731 C.ar      1 <0>        -0.0802
     29 O4          1.2870    9.7149    0.1054 O.3       1 <0>        -0.2573
     30 C23         0.2545   10.5696    0.3281 C.ar      1 <0>         0.0805
     31 C24        -0.1054   10.9014    1.6265 C.ar      1 <0>        -0.1325
     32 C25        -1.1556   11.7705    1.8501 C.ar      1 <0>        -0.1051
     33 C26        -1.8482   12.3094    0.7815 C.ar      1 <0>        -0.1168
     34 C27        -1.4916   11.9804   -0.5133 C.ar      1 <0>        -0.1047
     35 C28        -0.4383   11.1166   -0.7426 C.ar      1 <0>        -0.1222
     36 H1          2.9347   -1.9822    0.5701 H         1 <0>         0.1222
     37 H2          1.9895   -3.4480    0.2145 H         1 <0>         0.1311
     38 H3          1.7141   -1.9617   -0.7253 H         1 <0>         0.1219
     39 H4         -1.1507   -1.9734    1.4314 H         1 <0>         0.1291
     40 H5         -0.5565   -1.9812   -0.2464 H         1 <0>         0.1309
     41 H6          0.2640   -4.0230   -1.2655 H         1 <0>         0.1222
     42 H7          0.1595   -6.4797   -1.3041 H         1 <0>         0.1389
     43 H8         -1.2911   -6.4601    2.7345 H         1 <0>         0.1386
     44 H9         -1.1697   -4.0040    2.7532 H         1 <0>         0.1210
     45 H10         0.8745   -0.0189    0.3710 H         1 <0>         0.1369
     46 H11         0.1341   -0.1498    1.9844 H         1 <0>         0.1290
     47 H12         3.1232   -0.4103    1.4069 H         1 <0>         0.1152
     48 H13         1.3793   -0.7914    3.8357 H         1 <0>         0.0771
     49 H14         2.9940   -1.4843    3.4731 H         1 <0>         0.0911
     50 H15         2.7735    0.5507    5.2689 H         1 <0>         0.0866
     51 H16         4.1300    0.5497    4.0925 H         1 <0>         0.0867
     52 H17         1.4482    2.0292    3.9126 H         1 <0>         0.0507
     53 H18         3.0930    2.6766    3.6284 H         1 <0>         0.1062
     54 H19         1.0503    1.6467    0.4443 H         1 <0>         0.1128
     55 H20         0.2769    1.8079    2.0394 H         1 <0>         0.0736
     56 H21        -0.4593    3.9188    0.5867 H         1 <0>         0.4095
     57 H22        -1.4296    6.2234    0.9930 H         1 <0>         0.1295
     58 H23        -1.0291    8.6287    0.6626 H         1 <0>         0.1337
     59 H24         3.1119    7.8436   -0.0453 H         1 <0>         0.1385
     60 H25         2.7151    5.4390    0.2949 H         1 <0>         0.1430
     61 H26         0.4348   10.4803    2.4615 H         1 <0>         0.1302
     62 H27        -1.4361   12.0292    2.8605 H         1 <0>         0.1313
     63 H28        -2.6694   12.9881    0.9586 H         1 <0>         0.1299
     64 H29        -2.0345   12.4023   -1.3461 H         1 <0>         0.1327
     65 H30        -0.1574   10.8634   -1.7542 H         1 <0>         0.1326
     66 H31         1.1320   -2.3570    2.1242 H         1 <0>         0.4233
@<TRIPOS>BOND
     1    1    2 1
     2    1   36 1
     3    1   37 1
     4    1   38 1
     5    2    3 1
     6    2   13 1
     7    2   66 1
     8    3    4 1
     9    3   39 1
    10    3   40 1
    11    4    9 ar
    12    4    5 ar
    13    5    6 ar
    14    5   41 1
    15    6    7 ar
    16    6   42 1
    17    7    8 ar
    18    7   10 1
    19    8    9 ar
    20    8   43 1
    21    9   44 1
    22   10   11 2
    23   10   12 1
    24   13   14 1
    25   13   45 1
    26   13   46 1
    27   14   18 1
    28   14   15 1
    29   14   47 1
    30   15   16 1
    31   15   48 1
    32   15   49 1
    33   16   17 1
    34   16   50 1
    35   16   51 1
    36   17   18 1
    37   17   52 1
    38   17   53 1
    39   18   19 1
    40   19   20 1
    41   19   54 1
    42   19   55 1
    43   20   21 2
    44   20   22 am
    45   22   23 1
    46   22   56 1
    47   23   28 ar
    48   23   24 ar
    49   24   25 ar
    50   24   57 1
    51   25   26 ar
    52   25   58 1
    53   26   27 ar
    54   26   29 1
    55   27   28 ar
    56   27   59 1
    57   28   60 1
    58   29   30 1
    59   30   35 ar
    60   30   31 ar
    61   31   32 ar
    62   31   61 1
    63   32   33 ar
    64   32   62 1
    65   33   34 ar
    66   33   63 1
    67   34   35 ar
    68   34   64 1
    69   35   65 1
@<TRIPOS>MOLECULE
CHEMBL480909__2
   66    69     0     0     0
SMALL
USER_CHARGES

@<TRIPOS>ATOM
      1 C1          0.1042    0.7650    0.7601 C.3       1 <0>         0.0029
      2 N1          0.0986   -0.5020    0.0167 N.3       1 <0>        -0.5546
      3 C2          0.8650   -1.5334    0.7284 C.3       1 <0>         0.1068
      4 C3          0.1696   -1.8733    2.0215 C.ar      1 <0>        -0.1128
      5 C4          0.4757   -1.1702    3.1734 C.ar      1 <0>        -0.1298
      6 C5         -0.1564   -1.4760    4.3604 C.ar      1 <0>        -0.0859
      7 C6         -1.1081   -2.4982    4.3980 C.ar      1 <0>        -0.1176
      8 C7         -1.4123   -3.2036    3.2309 C.ar      1 <0>        -0.0865
      9 C8         -0.7760   -2.8832    2.0499 C.ar      1 <0>        -0.1166
     10 C9         -1.7882   -2.8316    5.6641 C.2       1 <0>         0.5133
     11 O1         -1.5194   -2.2127    6.6840 O.co2     1 <0>        -0.6820
     12 O2         -2.6208   -3.7269    5.6937 O.co2     1 <0>        -0.6817
     13 C10         0.6095   -0.3141   -1.3478 C.3       1 <0>         0.0232
     14 C11        -0.3551    0.5746   -2.1357 C.3       1 <0>         0.0284
     15 C12         0.0742    0.6310   -3.6169 C.3       1 <0>        -0.1335
     16 C13        -0.8322   -0.4365   -4.2844 C.3       1 <0>        -0.1407
     17 C14        -2.1473   -0.2767   -3.4815 C.3       1 <0>        -0.0091
     18 N2         -1.7124    0.0002   -2.0958 N.4       1 <0>        -0.3675
     19 C15        -2.6355    0.9561   -1.4696 C.3       1 <0>        -0.0262
     20 C16        -3.9929    0.3189   -1.3195 C.2       1 <0>         0.5046
     21 O3         -4.1736   -0.8196   -1.6971 O.2       1 <0>        -0.5080
     22 N3         -5.0061    1.0140   -0.7658 N.am      1 <0>        -0.6406
     23 C17        -6.3051    0.4892   -0.7788 C.ar      1 <0>         0.0905
     24 C18        -7.3995    1.3430   -0.7428 C.ar      1 <0>        -0.0972
     25 C19        -8.6794    0.8253   -0.7557 C.ar      1 <0>        -0.1730
     26 C20        -8.8721   -0.5479   -0.8045 C.ar      1 <0>         0.1230
     27 C21        -7.7789   -1.4016   -0.8405 C.ar      1 <0>        -0.1254
     28 C22        -6.4985   -0.8847   -0.8335 C.ar      1 <0>        -0.0866
     29 O4        -10.1326   -1.0571   -0.8167 O.3       1 <0>        -0.2552
     30 C23       -11.1690   -0.1912   -0.9659 C.ar      1 <0>         0.0786
     31 C24       -11.4632    0.3317   -2.2171 C.ar      1 <0>        -0.1326
     32 C25       -12.5174    1.2118   -2.3661 C.ar      1 <0>        -0.1059
     33 C26       -13.2789    1.5722   -1.2696 C.ar      1 <0>        -0.1162
     34 C27       -12.9879    1.0527   -0.0217 C.ar      1 <0>        -0.1035
     35 C28       -11.9387    0.1673    0.1316 C.ar      1 <0>        -0.1208
     36 H1          1.1307    1.1120    0.8788 H         1 <0>         0.0439
     37 H2         -0.4702    1.5111    0.2109 H         1 <0>         0.0564
     38 H3         -0.3435    0.6121    1.7420 H         1 <0>         0.0945
     39 H4          0.9353   -2.4268    0.1080 H         1 <0>         0.0853
     40 H5          1.8664   -1.1595    0.9418 H         1 <0>         0.0522
     41 H6          1.2116   -0.3802    3.1429 H         1 <0>         0.1096
     42 H7          0.0840   -0.9269    5.2589 H         1 <0>         0.1277
     43 H8         -2.1470   -3.9949    3.2526 H         1 <0>         0.1275
     44 H9         -1.0133   -3.4246    1.1461 H         1 <0>         0.1111
     45 H10         1.5897    0.1609   -1.3065 H         1 <0>         0.0843
     46 H11         0.6956   -1.2827   -1.8401 H         1 <0>         0.1022
     47 H12        -0.3647    1.5785   -1.7113 H         1 <0>         0.1372
     48 H13        -0.1194    1.6181   -4.0369 H         1 <0>         0.1011
     49 H14         1.1258    0.3650   -3.7238 H         1 <0>         0.1137
     50 H15        -0.9890   -0.2113   -5.3393 H         1 <0>         0.1161
     51 H16        -0.4165   -1.4361   -4.1577 H         1 <0>         0.0995
     52 H17        -2.7301    0.5584   -3.8703 H         1 <0>         0.1248
     53 H18        -2.7296   -1.1973   -3.5197 H         1 <0>         0.1434
     54 H19        -2.2558    1.2377   -0.4875 H         1 <0>         0.1595
     55 H20        -2.7184    1.8445   -2.0957 H         1 <0>         0.1565
     56 H21        -4.8360    1.8776   -0.3582 H         1 <0>         0.4189
     57 H22        -7.2496    2.4119   -0.7045 H         1 <0>         0.1320
     58 H23        -9.5307    1.4893   -0.7273 H         1 <0>         0.1361
     59 H24        -7.9295   -2.4703   -0.8785 H         1 <0>         0.1415
     60 H25        -5.6477   -1.5491   -0.8660 H         1 <0>         0.1634
     61 H26       -10.8683    0.0510   -3.0737 H         1 <0>         0.1293
     62 H27       -12.7468    1.6191   -3.3397 H         1 <0>         0.1309
     63 H28       -14.1022    2.2611   -1.3881 H         1 <0>         0.1301
     64 H29       -13.5840    1.3361    0.8331 H         1 <0>         0.1337
     65 H30       -11.7145   -0.2417    1.1057 H         1 <0>         0.1344
     66 H31        -1.7026   -0.8580   -1.5652 H         1 <0>         0.4420
@<TRIPOS>BOND
     1    1    2 1
     2    1   36 1
     3    1   37 1
     4    1   38 1
     5    2    3 1
     6    2   13 1
     7    3    4 1
     8    3   39 1
     9    3   40 1
    10    4    9 ar
    11    4    5 ar
    12    5    6 ar
    13    5   41 1
    14    6    7 ar
    15    6   42 1
    16    7    8 ar
    17    7   10 1
    18    8    9 ar
    19    8   43 1
    20    9   44 1
    21   10   11 2
    22   10   12 1
    23   13   14 1
    24   13   45 1
    25   13   46 1
    26   14   18 1
    27   14   15 1
    28   14   47 1
    29   15   16 1
    30   15   48 1
    31   15   49 1
    32   16   17 1
    33   16   50 1
    34   16   51 1
    35   17   18 1
    36   17   52 1
    37   17   53 1
    38   18   19 1
    39   18   66 1
    40   19   20 1
    41   19   54 1
    42   19   55 1
    43   20   21 2
    44   20   22 am
    45   22   23 1
    46   22   56 1
    47   23   28 ar
    48   23   24 ar
    49   24   25 ar
    50   24   57 1
    51   25   26 ar
    52   25   58 1
    53   26   27 ar
    54   26   29 1
    55   27   28 ar
    56   27   59 1
    57   28   60 1
    58   29   30 1
    59   30   35 ar
    60   30   31 ar
    61   31   32 ar
    62   31   61 1
    63   32   33 ar
    64   32   62 1
    65   33   34 ar
    66   33   63 1
    67   34   35 ar
    68   34   64 1
    69   35   65 1
@<TRIPOS>MOLECULE
CHEMBL480909__3
   66    69     0     0     0
SMALL
USER_CHARGES

@<TRIPOS>ATOM
      1 C1         -0.6845    0.6975   -0.2285 C.3       1 <0>        -0.0578
      2 N1         -0.0158   -0.5670    0.1060 N.4       1 <0>        -0.3818
      3 C2         -1.0261   -1.5938    0.3940 C.3       1 <0>         0.0527
      4 C3         -1.8206   -1.8809   -0.8539 C.ar      1 <0>        -0.1812
      5 C4         -2.9650   -1.1515   -1.1246 C.ar      1 <0>        -0.1136
      6 C5         -3.6974   -1.4090   -2.2646 C.ar      1 <0>        -0.0863
      7 C6         -3.2810   -2.4088   -3.1473 C.ar      1 <0>        -0.0902
      8 C7         -2.1243   -3.1408   -2.8677 C.ar      1 <0>        -0.0838
      9 C8         -1.3991   -2.8688   -1.7265 C.ar      1 <0>        -0.1058
     10 C9         -4.0594   -2.6905   -4.3686 C.2       1 <0>         0.5093
     11 O1         -5.0716   -2.0483   -4.6103 O.co2     1 <0>        -0.6737
     12 O2         -3.6923   -3.5662   -5.1392 O.co2     1 <0>        -0.6718
     13 C10         0.8359   -0.3731    1.2871 C.3       1 <0>         0.0087
     14 C11         1.9636    0.6037    0.9478 C.3       1 <0>         0.0407
     15 C12         2.9658    0.6757    2.1191 C.3       1 <0>        -0.1305
     16 C13         4.0849   -0.3058    1.6823 C.3       1 <0>        -0.1334
     17 C14         4.1185   -0.0804    0.1501 C.3       1 <0>         0.0471
     18 N2          2.7051    0.1233   -0.2326 N.3       1 <0>        -0.5232
     19 C15         2.5931    1.0736   -1.3472 C.3       1 <0>         0.0187
     20 C16         3.1473    0.4458   -2.6001 C.2       1 <0>         0.5097
     21 O3          3.5918   -0.6823   -2.5678 O.2       1 <0>        -0.4951
     22 N3          3.1491    1.1378   -3.7567 N.am      1 <0>        -0.6642
     23 C17         3.8136    0.6255   -4.8786 C.ar      1 <0>         0.1051
     24 C18         4.3018    1.4884   -5.8507 C.ar      1 <0>        -0.1072
     25 C19         4.9566    0.9829   -6.9562 C.ar      1 <0>        -0.1718
     26 C20         5.1268   -0.3871   -7.0958 C.ar      1 <0>         0.1130
     27 C21         4.6392   -1.2498   -6.1247 C.ar      1 <0>        -0.1245
     28 C22         3.9892   -0.7450   -5.0159 C.ar      1 <0>        -0.0929
     29 O4          5.7713   -0.8842   -8.1847 O.3       1 <0>        -0.2577
     30 C23         6.3917   -0.0057   -9.0152 C.ar      1 <0>         0.0819
     31 C24         7.6123    0.5474   -8.6553 C.ar      1 <0>        -0.1330
     32 C25         8.2409    1.4404   -9.5013 C.ar      1 <0>        -0.1059
     33 C26         7.6545    1.7835  -10.7056 C.ar      1 <0>        -0.1179
     34 C27         6.4382    1.2338  -11.0666 C.ar      1 <0>        -0.1042
     35 C28         5.8084    0.3356  -10.2271 C.ar      1 <0>        -0.1221
     36 H1          0.0652    1.4594   -0.4423 H         1 <0>         0.1105
     37 H2         -1.3164    0.5536   -1.1049 H         1 <0>         0.1299
     38 H3         -1.2982    1.0178    0.6134 H         1 <0>         0.1221
     39 H4         -0.5319   -2.5061    0.7280 H         1 <0>         0.1304
     40 H5         -1.6952   -1.2358    1.1764 H         1 <0>         0.1287
     41 H6         -3.2857   -0.3790   -0.4414 H         1 <0>         0.1210
     42 H7         -4.5908   -0.8395   -2.4742 H         1 <0>         0.1375
     43 H8         -1.7966   -3.9151   -3.5456 H         1 <0>         0.1379
     44 H9         -0.5023   -3.4308   -1.5113 H         1 <0>         0.1225
     45 H10         0.2380    0.0317    2.1036 H         1 <0>         0.1308
     46 H11         1.2623   -1.3298    1.5886 H         1 <0>         0.1318
     47 H12         1.5502    1.5924    0.7489 H         1 <0>         0.0902
     48 H13         3.3600    1.6862    2.2273 H         1 <0>         0.0855
     49 H14         2.4999    0.3413    3.0460 H         1 <0>         0.0883
     50 H15         5.0386   -0.0381    2.1374 H         1 <0>         0.0862
     51 H16         3.8161   -1.3351    1.9197 H         1 <0>         0.0817
     52 H17         4.7080    0.8044   -0.0904 H         1 <0>         0.0551
     53 H18         4.5256   -0.9571   -0.3536 H         1 <0>         0.1044
     54 H19         1.5451    1.3300   -1.5022 H         1 <0>         0.1018
     55 H20         3.1573    1.9763   -1.1130 H         1 <0>         0.0848
     56 H21         2.6902    1.9906   -3.8123 H         1 <0>         0.4113
     57 H22         4.1691    2.5547   -5.7424 H         1 <0>         0.1289
     58 H23         5.3361    1.6539   -7.7126 H         1 <0>         0.1329
     59 H24         4.7720   -2.3160   -6.2339 H         1 <0>         0.1383
     60 H25         3.6136   -1.4164   -4.2579 H         1 <0>         0.1633
     61 H26         8.0704    0.2803   -7.7144 H         1 <0>         0.1293
     62 H27         9.1909    1.8712   -9.2217 H         1 <0>         0.1303
     63 H28         8.1472    2.4823  -11.3653 H         1 <0>         0.1293
     64 H29         5.9822    1.5037  -12.0077 H         1 <0>         0.1328
     65 H30         4.8605   -0.0969  -10.5115 H         1 <0>         0.1337
     66 H31         0.5523   -0.8635   -0.6734 H         1 <0>         0.4319
@<TRIPOS>BOND
     1    1    2 1
     2    1   36 1
     3    1   37 1
     4    1   38 1
     5    2    3 1
     6    2   13 1
     7    2   66 1
     8    3    4 1
     9    3   39 1
    10    3   40 1
    11    4    9 ar
    12    4    5 ar
    13    5    6 ar
    14    5   41 1
    15    6    7 ar
    16    6   42 1
    17    7    8 ar
    18    7   10 1
    19    8    9 ar
    20    8   43 1
    21    9   44 1
    22   10   11 2
    23   10   12 1
    24   13   14 1
    25   13   45 1
    26   13   46 1
    27   14   18 1
    28   14   15 1
    29   14   47 1
    30   15   16 1
    31   15   48 1
    32   15   49 1
    33   16   17 1
    34   16   50 1
    35   16   51 1
    36   17   18 1
    37   17   52 1
    38   17   53 1
    39   18   19 1
    40   19   20 1
    41   19   54 1
    42   19   55 1
    43   20   21 2
    44   20   22 am
    45   22   23 1
    46   22   56 1
    47   23   28 ar
    48   23   24 ar
    49   24   25 ar
    50   24   57 1
    51   25   26 ar
    52   25   58 1
    53   26   27 ar
    54   26   29 1
    55   27   28 ar
    56   27   59 1
    57   28   60 1
    58   29   30 1
    59   30   35 ar
    60   30   31 ar
    61   31   32 ar
    62   31   61 1
    63   32   33 ar
    64   32   62 1
    65   33   34 ar
    66   33   63 1
    67   34   35 ar
    68   34   64 1
    69   35   65 1
@<TRIPOS>MOLECULE
CHEMBL349368
   44    46     0     0     0
SMALL
USER_CHARGES

@<TRIPOS>ATOM
      1 C1         -0.0167    1.3784    0.0096 C.ar      1 <0>        -0.0712
      2 C2          1.1695    2.0865    0.0021 C.ar      1 <0>        -0.1387
      3 C3          2.3802    1.4093   -0.0131 C.ar      1 <0>         0.1086
      4 C4          2.3963    0.0221   -0.0206 C.ar      1 <0>        -0.1986
      5 C5          1.2074   -0.6814   -0.0130 C.ar      1 <0>        -0.0714
      6 C6          0.0021   -0.0041    0.0020 C.ar      1 <0>        -0.0967
      7 C7         -1.2934   -0.7740    0.0107 C.3       1 <0>        -0.0450
      8 C8         -1.7392   -1.0230   -1.4071 C.ar      1 <0>        -0.0373
      9 C9         -2.5530   -0.1136   -2.0653 C.ar      1 <0>        -0.1697
     10 C10        -2.9419   -0.3758   -3.3653 C.ar      1 <0>         0.1038
     11 N1         -2.5484   -1.4749   -3.9785 N.ar      1 <0>        -0.4851
     12 C11        -1.7745   -2.3616   -3.3837 C.ar      1 <0>         0.1033
     13 C12        -1.3408   -2.1642   -2.0864 C.ar      1 <0>        -0.1706
     14 O1          3.5484    2.1036   -0.0209 O.3       1 <0>        -0.3254
     15 C13         4.7565    1.3405   -0.0365 C.3       1 <0>         0.0281
     16 C14         5.9580    2.2878   -0.0434 C.3       1 <0>         0.0011
     17 N2          5.9923    3.0443    1.2153 N.4       1 <0>        -0.3911
     18 C15         4.8165    3.9374    1.2913 C.3       1 <0>        -0.0013
     19 C16         5.3362    5.2166    1.9935 C.3       1 <0>        -0.1458
     20 C17         6.7651    5.3403    1.4022 C.3       1 <0>        -0.1421
     21 C18         7.2129    3.8699    1.2649 C.3       1 <0>        -0.0135
     22 H1         -0.9594    1.9052    0.0259 H         1 <0>         0.1354
     23 H2          1.1543    3.1664    0.0076 H         1 <0>         0.1332
     24 H3          3.3375   -0.5074   -0.0328 H         1 <0>         0.1278
     25 H4          1.2194   -1.7613   -0.0189 H         1 <0>         0.1304
     26 H5         -1.1460   -1.7274    0.5180 H         1 <0>         0.0903
     27 H6         -2.0553   -0.1973    0.5352 H         1 <0>         0.0913
     28 H7         -2.8792    0.7880   -1.5682 H         1 <0>         0.1342
     29 H8         -3.5757    0.3276   -3.8850 H         1 <0>         0.1577
     30 H9         -1.4728   -3.2505   -3.9179 H         1 <0>         0.1572
     31 H10        -0.7031   -2.8916   -1.6063 H         1 <0>         0.1331
     32 H11         4.7979    0.7076    0.8500 H         1 <0>         0.0856
     33 H12         4.7806    0.7165   -0.9299 H         1 <0>         0.1085
     34 H13         6.8762    1.7093   -0.1448 H         1 <0>         0.1491
     35 H14         5.8702    2.9798   -0.8810 H         1 <0>         0.1404
     36 H15         4.4545    4.1741    0.2908 H         1 <0>         0.1373
     37 H16         4.0261    3.4746    1.8822 H         1 <0>         0.1339
     38 H17         4.7279    6.0816    1.7291 H         1 <0>         0.1162
     39 H18         5.3713    5.0818    3.0746 H         1 <0>         0.0969
     40 H19         6.7380    5.8275    0.4275 H         1 <0>         0.0986
     41 H20         7.4198    5.8803    2.0861 H         1 <0>         0.1126
     42 H21         7.8187    3.5849    2.1251 H         1 <0>         0.1326
     43 H22         7.7854    3.7409    0.3463 H         1 <0>         0.1318
     44 H23         5.9824    2.4058    1.9965 H         1 <0>         0.4244
@<TRIPOS>BOND
     1    1    6 ar
     2    1    2 ar
     3    1   22 1
     4    2    3 ar
     5    2   23 1
     6    3    4 ar
     7    3   14 1
     8    4    5 ar
     9    4   24 1
    10    5    6 ar
    11    5   25 1
    12    6    7 1
    13    7    8 1
    14    7   26 1
    15    7   27 1
    16    8   13 ar
    17    8    9 ar
    18    9   10 ar
    19    9   28 1
    20   10   11 ar
    21   10   29 1
    22   11   12 ar
    23   12   13 ar
    24   12   30 1
    25   13   31 1
    26   14   15 1
    27   15   16 1
    28   15   32 1
    29   15   33 1
    30   16   17 1
    31   16   34 1
    32   16   35 1
    33   17   21 1
    34   17   18 1
    35   17   44 1
    36   18   19 1
    37   18   36 1
    38   18   37 1
    39   19   20 1
    40   19   38 1
    41   19   39 1
    42   20   21 1
    43   20   40 1
    44   20   41 1
    45   21   42 1
    46   21   43 1
@<TRIPOS>MOLECULE
CHEMBL326601
   46    47     0     0     0
SMALL
USER_CHARGES

@<TRIPOS>ATOM
      1 C1         -0.0178    1.4648    0.0101 C.3       1 <0>        -0.0541
      2 N1          0.0021   -0.0041    0.0020 N.4       1 <0>        -0.3860
      3 C2          0.6897   -0.4778   -1.2066 C.3       1 <0>        -0.0054
      4 C3          2.1588   -0.0534   -1.1571 C.3       1 <0>        -0.1491
      5 C4          2.8749   -0.5468   -2.4159 C.3       1 <0>         0.0634
      6 O1          4.2470   -0.1503   -2.3696 O.3       1 <0>        -0.3144
      7 C5          5.0295   -0.5121   -3.4202 C.ar      1 <0>         0.1207
      8 C6          4.4865   -1.2289   -4.4766 C.ar      1 <0>        -0.2036
      9 C7          5.2840   -1.5951   -5.5436 C.ar      1 <0>        -0.0726
     10 C8          6.6223   -1.2482   -5.5590 C.ar      1 <0>        -0.1053
     11 C9          7.1660   -0.5343   -4.5071 C.ar      1 <0>        -0.0731
     12 C10         6.3714   -0.1604   -3.4407 C.ar      1 <0>        -0.1445
     13 C11         7.4900   -1.6494   -6.7239 C.3       1 <0>        -0.0240
     14 C12         7.4564   -0.5667   -7.7716 C.2       1 <0>        -0.1158
     15 C13         6.5021   -0.5874   -8.7714 C.2       1 <0>        -0.1533
     16 C14         6.4996    0.4016   -9.6983 C.2       1 <0>        -0.1703
     17 S1          7.8760    1.4076   -9.1687 S.3       1 <0>         0.0329
     18 C15         8.3580    0.4450   -7.7445 C.2       1 <0>        -0.1711
     19 C16        -1.3761   -0.5125    0.0124 C.3       1 <0>         0.0142
     20 C17        -2.0530   -0.1242    1.3284 C.3       1 <0>        -0.2158
     21 C18        -3.4668   -0.6458    1.3391 C.2       1 <0>         0.4967
     22 O2         -3.8935   -1.2703    0.3828 O.co2     1 <0>        -0.6870
     23 O3         -4.1840   -0.4433    2.3041 O.co2     1 <0>        -0.6716
     24 H1          1.0047    1.8421    0.0024 H         1 <0>         0.1178
     25 H2         -0.5450    1.8259   -0.8730 H         1 <0>         0.1204
     26 H3         -0.5280    1.8163    0.9069 H         1 <0>         0.1266
     27 H4          0.6271   -1.5648   -1.2578 H         1 <0>         0.1323
     28 H5          0.2159   -0.0447   -2.0875 H         1 <0>         0.1308
     29 H6          2.2214    1.0336   -1.1059 H         1 <0>         0.0974
     30 H7          2.6326   -0.4865   -0.2761 H         1 <0>         0.0970
     31 H8          2.8123   -1.6338   -2.4670 H         1 <0>         0.0725
     32 H9          2.4011   -0.1137   -3.2968 H         1 <0>         0.0717
     33 H10         3.4414   -1.5007   -4.4647 H         1 <0>         0.1266
     34 H11         4.8617   -2.1531   -6.3662 H         1 <0>         0.1254
     35 H12         8.2117   -0.2648   -4.5213 H         1 <0>         0.1305
     36 H13         6.7955    0.4011   -2.6214 H         1 <0>         0.1315
     37 H14         8.5150   -1.7919   -6.3815 H         1 <0>         0.0833
     38 H15         7.1170   -2.5802   -7.1512 H         1 <0>         0.0818
     39 H16         5.7696   -1.3800   -8.8135 H         1 <0>         0.1322
     40 H17         5.8370    0.5438  -10.5393 H         1 <0>         0.1856
     41 H18         9.1605    0.6223   -7.0437 H         1 <0>         0.1839
     42 H19        -1.9290   -0.0808   -0.8218 H         1 <0>         0.1290
     43 H20        -1.3635   -1.5983   -0.0831 H         1 <0>         0.1298
     44 H21        -1.5001   -0.5559    2.1627 H         1 <0>         0.0807
     45 H22        -2.0656    0.9616    1.4239 H         1 <0>         0.0817
     46 H23         0.4901   -0.3383    0.8195 H         1 <0>         0.4205
@<TRIPOS>BOND
     1    1    2 1
     2    1   24 1
     3    1   25 1
     4    1   26 1
     5    2    3 1
     6    2   19 1
     7    2   46 1
     8    3    4 1
     9    3   27 1
    10    3   28 1
    11    4    5 1
    12    4   29 1
    13    4   30 1
    14    5    6 1
    15    5   31 1
    16    5   32 1
    17    6    7 1
    18    7   12 ar
    19    7    8 ar
    20    8    9 ar
    21    8   33 1
    22    9   10 ar
    23    9   34 1
    24   10   11 ar
    25   10   13 1
    26   11   12 ar
    27   11   35 1
    28   12   36 1
    29   13   14 1
    30   13   37 1
    31   13   38 1
    32   14   18 2
    33   14   15 1
    34   15   16 2
    35   15   39 1
    36   16   17 1
    37   16   40 1
    38   17   18 1
    39   18   41 1
    40   19   20 1
    41   19   42 1
    42   19   43 1
    43   20   21 1
    44   20   44 1
    45   20   45 1
    46   21   22 2
    47   21   23 1
