@<TRIPOS>MOLECULE
3CHP-4BO
 41 42 0 0 0
SMALL
SF_CHARGES


@<TRIPOS>ATOM
1    C         8.5610   41.8670   67.9200  C.2        1 SUBUNIT     -0.1010
2    C         7.7440   41.0110   68.6820  C.2        1 SUBUNIT     -0.1062
3    C         8.8950   38.0960   71.6280  C.2        1 SUBUNIT     -0.0988
4    C         9.5650   41.3400   67.0890  C.2        1 SUBUNIT      0.1210
5    C         7.9130   39.6150   68.6160  C.2        1 SUBUNIT      0.1602
6    C         8.9110   39.0850   67.7760  C.2        1 SUBUNIT     -0.1062
7    O        13.8240   41.2220   63.6590  O.co2      1 SUBUNIT     -0.8775
8    C        14.5240   41.7760   64.5420  C.2        1 SUBUNIT      0.7607
9    C        13.8510   42.8740   65.4020  C.3        1 SUBUNIT     -0.0876
10   C        11.5360   41.8270   65.7910  C.2        1 SUBUNIT      0.6335
11   C        12.3260   42.9900   65.1620  C.3        1 SUBUNIT      0.1680
12   C         8.4650   35.7530   71.1370  C.2        1 SUBUNIT     -0.0988
13   C         9.1820   35.3790   72.2830  C.2        1 SUBUNIT     -0.0959
14   C         9.7550   36.3580   73.1020  C.2        1 SUBUNIT     -0.0957
15   C         9.6110   37.7180   72.7740  C.2        1 SUBUNIT     -0.0959
16   C         8.3210   37.1100   70.8020  C.2        1 SUBUNIT     -0.0424
17   C         7.6350   37.4540   69.6320  C.3        1 SUBUNIT      0.2345
18   O         7.1020   38.7970   69.3860  O.3        1 SUBUNIT     -0.3882
19   C         9.7270   39.9390   67.0250  C.2        1 SUBUNIT     -0.1010
20   N        10.4280   42.1990   66.4790  N.am       1 SUBUNIT     -0.5250
21   O        11.9510   40.6720   65.6950  O.2        1 SUBUNIT     -0.5368
22   N        11.8390   44.2520   65.6990  N.4        1 SUBUNIT     -0.4415
23   O        15.7320   41.5240   64.7880  O.co2      1 SUBUNIT     -0.8775
24   H         8.4167   42.9319   67.9734  H          1 SUBUNIT      0.1193
25   H         6.9841   41.4271   69.3201  H          1 SUBUNIT      0.1245
26   H         8.7857   39.1379   71.3823  H          1 SUBUNIT      0.1238
27   H         9.0493   38.0200   67.7090  H          1 SUBUNIT      0.1245
28   H        14.0197   42.6403   66.4584  H          1 SUBUNIT      0.0635
29   H        14.3147   43.8365   65.1620  H          1 SUBUNIT      0.0635
30   H        12.1479   42.9807   64.0816  H          1 SUBUNIT      0.0461
31   H         8.0235   34.9965   70.5120  H          1 SUBUNIT      0.1238
32   H         9.2922   34.3384   72.5337  H          1 SUBUNIT      0.1202
33   H        10.3043   36.0682   73.9806  H          1 SUBUNIT      0.1202
34   H        10.0509   38.4720   73.4031  H          1 SUBUNIT      0.1202
35   H         8.3315   37.2364   68.8155  H          1 SUBUNIT      0.0347
36   H         6.7865   36.7637   69.5824  H          1 SUBUNIT      0.0347
37   H        10.4874   39.5173   66.3911  H          1 SUBUNIT      0.1193
38   H        10.2302   43.1854   66.5424  H          1 SUBUNIT      0.3256
39   H        12.0138   44.3144   66.6898  H          1 SUBUNIT      0.3114
40   H        10.8462   44.3477   65.5529  H          1 SUBUNIT      0.3114
41   H        12.2944   45.0336   65.2542  H          1 SUBUNIT      0.3114
@<TRIPOS>BOND
     1    1    2 2
     2    1    4 1
     3    2    5 1
     4    3   15 2
     5    3   16 1
     6    4   19 2
     7    4   20 1
     8    5    6 2
     9    5   18 1
    10    6   19 1
    11    7    8 2
    12    8    9 1
    13    8   23 1
    14    9   11 1
    15   10   11 1
    16   10   20 1
    17   10   21 2
    18   11   22 1
    19   12   13 1
    20   12   16 2
    21   13   14 2
    22   14   15 1
    23   16   17 1
    24   17   18 1
    25    1   24 1
    26    2   25 1
    27    3   26 1
    28    6   27 1
    29    9   28 1
    30    9   29 1
    31   11   30 1
    32   12   31 1
    33   13   32 1
    34   14   33 1
    35   15   34 1
    36   17   35 1
    37   17   36 1
    38   19   37 1
    39   20   38 1
    40   22   39 1
    41   22   40 1
    42   22   41 1
